geometry optimzed in LAMMPS
_audit_creation_date              2020-12-01 
_audit_creation_method            'lammps2cif' 
_symmetry_space_group_name_H-M    'P1' 
_symmetry_Int_Tables_number       1 
_symmetry_cell_setting            triclinic 
loop_ 
_symmetry_equiv_pos_as_xyz 
  x,y,z 
_cell_length_a                    23.45965274 
_cell_length_b                    24.001105273825086 
_cell_length_c                    24.06828984624619 
_cell_angle_alpha                 91.38283775784974 
_cell_angle_beta                  92.23500412855341 
_cell_angle_gamma                 92.4797611449602 
loop_ 
_atom_site_label 
_atom_site_type_symbol 
_atom_site_fract_x 
_atom_site_fract_y 
_atom_site_fract_z 
_atom_site_charge 
C1          C  0.23312330  0.19907815  0.21314672     0.30700
C2          C  0.29798483  0.28360543  0.26295231     0.30700
C3          C  0.28803619  0.21605933  0.18211820    -0.05500
C4          C  0.20271598  0.25526529  0.21821938    -0.06300
C5          C  0.25732304  0.18888826  0.27279019    -0.06200
C6          C  0.32217788  0.25752144  0.20947136    -0.05500
C7          C  0.23632350  0.29660037  0.24457110    -0.06300
C8          C  0.28970758  0.23091256  0.30063028    -0.06200
C9          C  0.37030393  0.26605429  0.17858336    -0.31600
N10         N  0.36449795  0.23512305  0.13064008     0.14900
C11         C  0.31408227  0.20468938  0.13193854    -0.31600
H12         H  0.29749868  0.17703388  0.09842950     0.16900
C13         C  0.20524959  0.34405503  0.24783484    -0.30500
N14         N  0.15354310  0.33538052  0.22224192     0.13700
C15         C  0.15118346  0.28050365  0.20352056    -0.30500
C16         C  0.30263128  0.20794704  0.35378048    -0.30800
N17         N  0.27887769  0.15421497  0.35656674     0.14200
H18         H  0.32738294  0.22902479  0.38752150     0.16800
C19         C  0.25239794  0.14366248  0.30674448    -0.30800
H20         H  0.22954017  0.10476981  0.29619489     0.16800
H21         H  0.11477886  0.26006725  0.18133365     0.16800
H22         H  0.40653968  0.29426148  0.18934641     0.16900
H23         H  0.21888608  0.38272897  0.26883944     0.16800
N24         N  0.00558678  0.39036010  0.22127214    -0.35900
N25         N  0.91945220  0.47404248  0.24205800    -0.56500
N26         N  0.01039522  0.56192670  0.25276523    -0.35900
N27         N  0.09761354  0.47868255  0.24233795    -0.56500
C28         C  0.95978769  0.35842307  0.23656363     0.27700
C29         C  0.05275354  0.36102578  0.23241292     0.27700
C30         C  0.96406304  0.59098142  0.26675110     0.27700
C31         C  0.05846688  0.59278586  0.26981556     0.27700
C32         C  0.88574393  0.42856136  0.22547468     0.36300
C33         C  0.88695826  0.51958605  0.23780291     0.36300
C34         C  0.12703010  0.43615874  0.22043645     0.36300
C35         C  0.13134776  0.52633678  0.24008629     0.36300
C36         C  0.97846377  0.30938673  0.25870882    -0.21200
C37         C  0.03671593  0.31113082  0.25577273    -0.21200
C38         C  0.98310152  0.64058254  0.29338881    -0.21200
C39         C  0.04212563  0.64168363  0.29535049    -0.21200
C40         C  0.83189542  0.44572609  0.20972348    -0.22300
C41         C  0.83256978  0.50294900  0.21783132    -0.22300
C42         C  0.17927635  0.45762309  0.20334738    -0.22300
C43         C  0.18228994  0.51408141  0.21648564    -0.22300
C44         C  0.90152482  0.37163261  0.23007779    -0.17600
C45         C  0.10994340  0.37774057  0.22185353    -0.17600
C46         C  0.11660199  0.58082385  0.25865255    -0.17600
C47         C  0.90506456  0.57562780  0.25374927    -0.17600
H48         H  0.95339703  0.27629065  0.27703653     0.15300
H49         H  0.06427628  0.28020712  0.27146945     0.15300
H50         H  0.95717942  0.67292596  0.30968670     0.15300
H51         H  0.06993775  0.67521143  0.31306443     0.15300
H52         H  0.79557340  0.41966707  0.19442165     0.13600
H53         H  0.79698551  0.52922822  0.20983060     0.13600
H54         H  0.21234852  0.43492732  0.18387794     0.13600
H55         H  0.21765815  0.54290672  0.20868079     0.13600
H56         H  0.00451438  0.42801978  0.20054169     0.26800
H57         H  0.00917505  0.52605465  0.22751529     0.26800
C58         C  0.79473153  0.75938948  0.23257270     0.30700
C59         C  0.73475564  0.69699406  0.30515271     0.30700
C60         C  0.73372336  0.73762823  0.21214470    -0.05500
C61         C  0.82191169  0.70298975  0.24855810    -0.06300
C62         C  0.78411742  0.78938392  0.28889218    -0.06200
C63         C  0.70149550  0.70669839  0.24880005    -0.05500
C64         C  0.79043055  0.67108285  0.28498058    -0.06300
C65         C  0.75288835  0.75724681  0.32389552    -0.06200
C66         C  0.64839794  0.69474016  0.22046135    -0.31600
N67         N  0.64892822  0.71716457  0.16842120     0.14900
C68         C  0.70111928  0.74226957  0.16366853    -0.31600
H69         H  0.71403716  0.76322148  0.12677369     0.16900
C70         C  0.81503323  0.61901361  0.28776333    -0.30500
N71         N  0.86269256  0.61901039  0.25711710     0.13700
C72         C  0.86577329  0.66900978  0.23158202    -0.30500
C73         C  0.73775216  0.79106095  0.36767748    -0.30800
N74         N  0.76185823  0.84284693  0.36390971     0.14200
H75         H  0.70967948  0.77907907  0.40020826     0.16800
C76         C  0.78983189  0.84296762  0.31475680    -0.30800
H77         H  0.81167810  0.87925032  0.29835425     0.16800
H78         H  0.89701084  0.67746545  0.20099817     0.16800
H79         H  0.61241608  0.67120087  0.23621962     0.16900
H80         H  0.79966300  0.58404706  0.31136020     0.16800
N81         N  0.25137663  0.01054964  0.41209852    -0.35900
N82         N  0.26192011  0.09701902  0.50160696    -0.56500
N83         N  0.25129011  0.00998013  0.58364611    -0.35900
N84         N  0.25445276  0.92415341  0.49448283    -0.56500
C85         C  0.27743986  0.05399380  0.38584177     0.27700
C86         C  0.25466281  0.96330129  0.37973252     0.27700
C87         C  0.25786508  0.05682186  0.61666171     0.27700
C88         C  0.27312020  0.96688055  0.61211981     0.27700
C89         C  0.25880728  0.12896693  0.45552280     0.36300
C90         C  0.23917862  0.12616389  0.54408927     0.36300
C91         C  0.23000549  0.89397233  0.45051523     0.36300
C92         C  0.24910595  0.89243191  0.54027569     0.36300
C93         C  0.29864780  0.03296589  0.33669908    -0.21200
C94         C  0.28318721  0.97657746  0.33231715    -0.21200
C95         C  0.28425581  0.04370019  0.66675386    -0.21200
C96         C  0.29476862  0.98741102  0.66358694    -0.21200
C97         C  0.23385558  0.17844278  0.46871390    -0.22300
C98         C  0.22067063  0.17637134  0.52410769    -0.22300
C99         C  0.20832810  0.84331882  0.46908549    -0.22300
C100        C  0.22087138  0.84222737  0.52553098    -0.22300
C101        C  0.27577240  0.11275200  0.40120681    -0.17600
C102        C  0.23398476  0.90836404  0.39321725    -0.17600
C103        C  0.26781834  0.90886403  0.59552620    -0.17600
C104        C  0.24135173  0.11108865  0.60176133    -0.17600
H105        H  0.32172445  0.05617892  0.30609161     0.15300
H106        H  0.29304992  0.94840540  0.29860948     0.15300
H107        H  0.29592716  0.07192351  0.70148100     0.15300
H108        H  0.31517527  0.96410622  0.69614110     0.15300
H109        H  0.22395696  0.21159074  0.44086831     0.13600
H110        H  0.20012023  0.20859749  0.54713983     0.13600
H111        H  0.18628781  0.81017711  0.44439201     0.13600
H112        H  0.20844140  0.80927750  0.55299513     0.13600
H113        H  0.22744892  0.01347454  0.44749747     0.26800
H114        H  0.22790480  0.00711569  0.54596854     0.26800
N115        N  0.75062373  0.98796586  0.42635371    -0.35900
N116        N  0.73371801  0.89955608  0.50577721    -0.56500
N117        N  0.74137654  0.98458777  0.59643022    -0.35900
N118        N  0.74577999  0.07215081  0.51603824    -0.56500
C119        C  0.74219540  0.94150415  0.39296237     0.27700
C120        C  0.73023306  0.03209392  0.39841057     0.27700
C121        C  0.71295747  0.94111481  0.62015817     0.27700
C122        C  0.73651416  0.03112675  0.62927894     0.27700
C123        C  0.75850688  0.87108379  0.46433729     0.36300
C124        C  0.73561105  0.86726598  0.55141478     0.36300
C125        C  0.75407591  0.10510071  0.47160737     0.36300
C126        C  0.76776481  0.10094341  0.56184780     0.36300
C127        C  0.71566595  0.95582702  0.34344802    -0.21200
C128        C  0.70729099  0.01251406  0.34706788    -0.21200
C129        C  0.68892538  0.96125573  0.66826332    -0.21200
C130        C  0.70477457  0.01740604  0.67453806    -0.21200
C131        C  0.77739744  0.82110562  0.48460500    -0.22300
C132        C  0.76194451  0.81824807  0.53918756    -0.22300
C133        C  0.78160796  0.15493817  0.48915730    -0.22300
C134        C  0.79101187  0.15183461  0.54598789    -0.22300
C135        C  0.75732624  0.88660395  0.40716851    -0.17600
C136        C  0.73771413  0.08997895  0.41548614    -0.17600
C137        C  0.75895758  0.08577789  0.61812419    -0.17600
C138        C  0.71580776  0.88282492  0.60442471    -0.17600
H139        H  0.70203715  0.92803349  0.30915009     0.15300
H140        H  0.68711436  0.03662198  0.31500834     0.15300
H141        H  0.66410743  0.93742026  0.69714088     0.15300
H142        H  0.69338820  0.04512829  0.70806402     0.15300
H143        H  0.79956015  0.78946542  0.46233771     0.13600
H144        H  0.77100175  0.78475859  0.56703922     0.13600
H145        H  0.79488895  0.18929005  0.46365745     0.13600
H146        H  0.81211200  0.18350152  0.57301125     0.13600
H147        H  0.77437103  0.98978207  0.46391607     0.26800
H148        H  0.76782994  0.98190943  0.56275535     0.26800
C149        C  0.29491876  0.73296476  0.72142611     0.30700
C150        C  0.23555364  0.80933626  0.77730874     0.30700
C151        C  0.28541759  0.78828825  0.68913857    -0.05500
C152        C  0.23386808  0.71467434  0.73710422    -0.06300
C153        C  0.32302324  0.75567913  0.77795350    -0.06200
C154        C  0.25396517  0.82541121  0.71883857    -0.05500
C155        C  0.20420131  0.75189138  0.76738935    -0.06300
C156        C  0.29178970  0.79346778  0.80727160    -0.06200
C157        C  0.24445295  0.87130705  0.68706055    -0.31600
N158        N  0.27108384  0.86669591  0.63868627     0.14900
C159        C  0.29726690  0.81641596  0.63949143    -0.31600
H160        H  0.32377350  0.80196214  0.60686726     0.16900
C161        C  0.15416211  0.72339480  0.78223338    -0.30500
N162        N  0.15193706  0.67090074  0.75866311     0.13700
C163        C  0.20047027  0.66589123  0.73071013    -0.30500
C164        C  0.31887233  0.80134757  0.85954682    -0.30800
N165        N  0.36753333  0.77221867  0.86173887     0.14200
H166        H  0.30382435  0.82602395  0.89376870     0.16800
C167        C  0.37051885  0.74483008  0.81175175    -0.30800
H168        H  0.40390875  0.71702256  0.80153243     0.16800
H169        H  0.21095919  0.62885309  0.70744471     0.16800
H170        H  0.21899783  0.90605621  0.69827114     0.16900
H171        H  0.12194709  0.73963456  0.80842064     0.16800
N172        N  0.08980076  0.52548425  0.74501552    -0.35900
N173        N  0.00260992  0.60900983  0.76422644    -0.56500
N174        N  0.91295560  0.52046967  0.74117757    -0.35900
N175        N  0.00072756  0.43754617  0.73179209    -0.56500
C176        C  0.12154853  0.57079904  0.76493757     0.27700
C177        C  0.12148513  0.47980922  0.75237498     0.27700
C178        C  0.88386777  0.56241543  0.76461382     0.27700
C179        C  0.88144392  0.47184792  0.74602110     0.27700
C180        C  0.04879851  0.64230316  0.75303685     0.36300
C181        C  0.95608011  0.63968664  0.75466141     0.36300
C182        C  0.04706815  0.40752049  0.72062627     0.36300
C183        C  0.95356151  0.40538966  0.71553593     0.36300
C184        C  0.17379162  0.55361663  0.78557344    -0.21200
C185        C  0.17376356  0.49643019  0.77762583    -0.21200
C186        C  0.83396392  0.53954938  0.78553953    -0.21200
C187        C  0.83210817  0.48292558  0.77319302    -0.21200
C188        C  0.03140210  0.69367045  0.73567611    -0.22300
C189        C  0.97293486  0.69190237  0.73678267    -0.22300
C190        C  0.02910537  0.35638341  0.69667691    -0.22300
C191        C  0.97024120  0.35505655  0.69343084    -0.22300
C192        C  0.10651087  0.62756376  0.76018315    -0.17600
C193        C  0.10515432  0.42382196  0.73540981    -0.17600
C194        C  0.89585888  0.41773869  0.72645030    -0.17600
C195        C  0.89877586  0.62112081  0.76268624    -0.17600
H196        H  0.20861111  0.57962876  0.80418511     0.15300
H197        H  0.20842474  0.47018876  0.78921215     0.15300
H198        H  0.80172698  0.56145255  0.80716075     0.15300
H199        H  0.79847632  0.45321063  0.78369668     0.15300
H200        H  0.05764297  0.72847153  0.72202311     0.13600
H201        H  0.94608416  0.72468807  0.72374122     0.13600
H202        H  0.05558901  0.32315331  0.68335680     0.13600
H203        H  0.94277906  0.32039099  0.67762206     0.13600
H204        H  0.05121190  0.52682343  0.72235939     0.26800
H205        H  0.94947572  0.52555897  0.71823128     0.26800
C206        C  0.79383411  0.23649735  0.78185605     0.30700
C207        C  0.71833424  0.27581076  0.70462234     0.30700
C208        C  0.73330477  0.24673723  0.80168702    -0.05500
C209        C  0.81262481  0.29033845  0.75337953    -0.06300
C210        C  0.77961182  0.19505159  0.73105979    -0.06200
C211        C  0.69487074  0.26929807  0.76432210    -0.05500
C212        C  0.77477901  0.31224929  0.71547595    -0.06300
C213        C  0.73958831  0.21604494  0.69348188    -0.06200
C214        C  0.64561432  0.27603841  0.79476589    -0.31600
N215        N  0.65285955  0.25572087  0.84724898     0.14900
C216        C  0.70607481  0.23613835  0.85054742    -0.31600
H217        H  0.72415239  0.21517182  0.88596809     0.16900
C218        C  0.80081536  0.36350258  0.70045258    -0.30500
N219        N  0.85343048  0.37105640  0.72753367     0.13700
C220        C  0.86041860  0.32595669  0.75934810    -0.30500
C221        C  0.72581039  0.17551856  0.65296663    -0.30800
N222        N  0.75817262  0.13097663  0.66042282     0.14200
H223        H  0.69470315  0.17835277  0.61891480     0.16800
C224        C  0.79087578  0.14158030  0.70873791    -0.30800
H225        H  0.82104016  0.11314472  0.72587347     0.16800
H226        H  0.89732977  0.32022713  0.78671330     0.16800
H227        H  0.60680639  0.29449593  0.78082137     0.16900
H228        H  0.78262463  0.39292527  0.67217169     0.16800
N229        N  0.50148194  0.73544227  0.10264319    -0.35900
N230        N  0.59240300  0.73189094  0.02292739    -0.56500
N231        N  0.50975849  0.75307853  0.93268361    -0.35900
N232        N  0.41959638  0.76598571  0.01167527    -0.56500
C233        C  0.54932313  0.73878826  0.13682681     0.27700
C234        C  0.45861743  0.75909173  0.13011811     0.27700
C235        C  0.55956330  0.76094679  0.90651727     0.27700
C236        C  0.46765200  0.77327816  0.89960449     0.27700
C237        C  0.61931512  0.71008820  0.06788085     0.36300
C238        C  0.62522972  0.72270110  0.97852892     0.36300
C239        C  0.38414572  0.75377558  0.05348905     0.36300
C240        C  0.38798635  0.75898296  0.96315243     0.36300
C241        C  0.53692554  0.76551748  0.18622547    -0.21200
C242        C  0.48026723  0.77891334  0.18176984    -0.21200
C243        C  0.54892725  0.78703111  0.85659943    -0.21200
C244        C  0.49106844  0.79475584  0.85224077    -0.21200
C245        C  0.66908602  0.68630395  0.05138896    -0.22300
C246        C  0.67314159  0.69495986  0.99516667    -0.22300
C247        C  0.33039871  0.73819221  0.03094140    -0.22300
C248        C  0.33267866  0.74188119  0.97416704    -0.22300
C249        C  0.60387658  0.71850652  0.12439426    -0.17600
C250        C  0.39966775  0.75863357  0.11150225    -0.17600
C251        C  0.40820277  0.76867642  0.90904669    -0.17600
C252        C  0.61351578  0.74085958  0.92358742    -0.17600
H253        H  0.56589802  0.77549563  0.22148467     0.15300
H254        H  0.45774923  0.80102897  0.21324373     0.15300
H255        H  0.57953554  0.79844554  0.82587947     0.15300
H256        H  0.46876109  0.81353069  0.81774502     0.15300
H257        H  0.70017718  0.66607851  0.07746129     0.13600
H258        H  0.70745807  0.68242178  0.96948630     0.13600
H259        H  0.29349133  0.72369261  0.05242228     0.13600
H260        H  0.29785791  0.73138811  0.94445360     0.13600
H261        H  0.49687726  0.71345622  0.06467028     0.26800
H262        H  0.50360645  0.72912666  0.96770371     0.26800
N263        N  0.51022723  0.24027072  0.07438543    -0.35900
N264        N  0.59787885  0.24398490  0.99260572    -0.56500
N265        N  0.50768429  0.26147793  0.90463182    -0.35900
N266        N  0.42029737  0.24776342  0.98648309    -0.56500
C267        C  0.55657999  0.22675301  0.10599005     0.27700
C268        C  0.46316161  0.22378736  0.10178171     0.27700
C269        C  0.55221816  0.24430781  0.87528557     0.27700
C270        C  0.45940296  0.25122122  0.87223425     0.27700
C271        C  0.63127679  0.25296686  0.03998666     0.36300
C272        C  0.62946840  0.25971695  0.94888255     0.36300
C273        C  0.38933014  0.25329146  0.03276811     0.36300
C274        C  0.38905724  0.26842866  0.94348271     0.36300
C275        C  0.53871593  0.20072699  0.15343997    -0.21200
C276        C  0.47988166  0.19884033  0.15078547    -0.21200
C277        C  0.53151030  0.22116939  0.82462262    -0.21200
C278        C  0.47311424  0.22593025  0.82263739    -0.21200
C279        C  0.68434961  0.27451159  0.02634958    -0.22300
C280        C  0.68305910  0.27935201  0.96913796    -0.22300
C281        C  0.33848728  0.27767140  0.01925230    -0.22300
C282        C  0.33870985  0.28783535  0.96314796    -0.22300
C283        C  0.61447449  0.24076677  0.09512907    -0.17600
C284        C  0.40585414  0.23585999  0.08696036    -0.17600
C285        C  0.40349051  0.26508682  0.88627863    -0.17600
C286        C  0.61109016  0.25355338  0.89115525    -0.17600
H287        H  0.56530245  0.18508020  0.18680648     0.15300
H288        H  0.45249607  0.18199963  0.18202771     0.15300
H289        H  0.55580046  0.20241042  0.79234994     0.15300
H290        H  0.44386168  0.21091072  0.78926209     0.15300
H291        H  0.71997589  0.28636883  0.05471964     0.13600
H292        H  0.71764029  0.29636076  0.94558955     0.13600
H293        H  0.30509672  0.28790467  0.04705012     0.13600
H294        H  0.30553579  0.30742509  0.93968813     0.13600
H295        H  0.51077550  0.26548147  0.03981943     0.26800
H296        H  0.51069801  0.28425947  0.94215720     0.26800
C297        C  0.70379169  0.70799640  0.73348617     0.30700
C298        C  0.76820000  0.79243863  0.78550682     0.30700
C299        C  0.68717525  0.72421004  0.79452310    -0.05500
C300        C  0.76792044  0.69699753  0.74398196    -0.06300
C301        C  0.70555343  0.76385200  0.70179778    -0.06200
C302        C  0.71982084  0.76777102  0.82050421    -0.05500
C303        C  0.80152091  0.73927262  0.77083995    -0.06300
C304        C  0.73676441  0.80564039  0.73039711    -0.06200
C305        C  0.70053987  0.77460032  0.87435277    -0.31600
N306        N  0.65661120  0.73720224  0.88179628     0.14900
C307        C  0.65030131  0.70478718  0.83482913    -0.31600
H308        H  0.62030470  0.66951040  0.83170397     0.16900
C309        C  0.85402952  0.71557078  0.78369780    -0.30500
N310        N  0.85341937  0.66163019  0.76284689     0.13700
C311        C  0.80080472  0.65089183  0.73911832    -0.30500
C312        C  0.73841522  0.85200999  0.69814356    -0.30800
N313        N  0.71210539  0.84139198  0.64837971     0.14200
H314        H  0.76029680  0.89123046  0.70878397     0.16800
C315        C  0.69164586  0.78659345  0.64932299    -0.30800
H316        H  0.67037709  0.76421355  0.61428145     0.16800
H317        H  0.78743066  0.61105428  0.72046750     0.16800
H318        H  0.71630050  0.80511813  0.90568614     0.16900
H319        H  0.88934876  0.73588312  0.80764450     0.16800
C320        C  0.72042767  0.26534497  0.28996715     0.30700
C321        C  0.77593616  0.18733227  0.23298480     0.30700
C322        C  0.69418882  0.24874061  0.23028305    -0.05500
C323        C  0.78277714  0.28230692  0.27507639    -0.06300
C324        C  0.72624042  0.20957455  0.32019363    -0.06200
C325        C  0.72317945  0.20880356  0.20144763    -0.05500
C326        C  0.81186066  0.24253647  0.24577495    -0.06300
C327        C  0.75465446  0.17122679  0.29052277    -0.06200
C328        C  0.70086418  0.20581637  0.14685872    -0.31600
N329        N  0.65666648  0.24044514  0.14177422     0.14900
C330        C  0.65339020  0.26784766  0.19205075    -0.31600
H331        H  0.62340012  0.29979448  0.19993283     0.16900
C332        C  0.85656933  0.27204568  0.22089863    -0.30500
N333        N  0.85753768  0.32723498  0.23735986     0.13700
C334        C  0.81132187  0.33340610  0.26820050    -0.30500
C335        C  0.76202064  0.12543616  0.32338426    -0.30800
N336        N  0.73726763  0.13256096  0.37252769     0.14200
H337        H  0.78533857  0.08912676  0.31280907     0.16800
C338        C  0.71554262  0.18493970  0.37171796    -0.30800
H339        H  0.69432593  0.20410935  0.40592743     0.16800
H340        H  0.79879600  0.37346323  0.28315381     0.16800
H341        H  0.71501927  0.17925988  0.11360643     0.16900
H342        H  0.88557702  0.25454012  0.19199432     0.16800
C343        C  0.27906949  0.29873905  0.70377871     0.30700
C344        C  0.21168685  0.24525484  0.77628740     0.30700
C345        C  0.30964458  0.28704015  0.76126473    -0.05500
C346        C  0.22550003  0.33021894  0.72184484    -0.06300
C347        C  0.25539836  0.23956480  0.68575649    -0.06200
C348        C  0.27407182  0.25835006  0.79690966    -0.05500
C349        C  0.19060254  0.30122183  0.75603565    -0.06300
C350        C  0.22046973  0.21070412  0.72104739    -0.06200
C351        C  0.30535315  0.24600305  0.84426666    -0.31600
N352        N  0.35892237  0.26910724  0.84209389     0.14900
C353        C  0.36211169  0.29447763  0.79150541    -0.31600
H354        H  0.39964140  0.31727028  0.77806421     0.16900
C355        C  0.14296768  0.33236609  0.76458816    -0.30500
N356        N  0.14793091  0.38101329  0.73718674     0.13700
C357        C  0.19899573  0.38064326  0.71161061    -0.30500
C358        C  0.21088177  0.15725977  0.69454179    -0.30800
N359        N  0.23834402  0.15539076  0.64487481     0.14200
H360        H  0.18710628  0.12204330  0.71067372     0.16800
C361        C  0.26648677  0.20509308  0.64116311    -0.30800
H362        H  0.29461644  0.21507623  0.60800358     0.16800
H363        H  0.21495337  0.41372378  0.68582383     0.16800
H364        H  0.28981990  0.22146422  0.87811651     0.16900
H365        H  0.10714350  0.32041153  0.78940019     0.16800
C366        C  0.28790064  0.73177169  0.28897771     0.30700
C367        C  0.20935705  0.77179389  0.21556738     0.30700
C368        C  0.30952661  0.74733930  0.23211090    -0.05500
C369        C  0.23590938  0.68980534  0.27384052    -0.06300
C370        C  0.25620506  0.78368444  0.30896931    -0.06200
C371        C  0.27133710  0.76969124  0.19547061    -0.05500
C372        C  0.19624061  0.71226551  0.23716310    -0.06300
C373        C  0.21817951  0.80737645  0.27155457    -0.06200
C374        C  0.30116283  0.78023142  0.14741808    -0.31600
N375        N  0.35518081  0.76069331  0.15293947     0.14900
C376        C  0.35946873  0.73982116  0.20493709    -0.31600
H377        H  0.39565268  0.71836475  0.22166415     0.16900
C378        C  0.15030446  0.67453544  0.22909854    -0.30500
N379        N  0.15915662  0.62799682  0.25836765     0.13700
C380        C  0.21164361  0.63660200  0.28611677    -0.30500
C381        C  0.20463848  0.85834482  0.29825035    -0.30800
N382        N  0.23055613  0.86270666  0.35080574     0.14200
H383        H  0.17915392  0.89030902  0.28026011     0.16800
C384        C  0.25930570  0.81564242  0.35745810    -0.30800
H385        H  0.28435512  0.80688136  0.39465162     0.16800
H386        H  0.23022310  0.60728601  0.31425628     0.16800
H387        H  0.28381079  0.79983360  0.11088105     0.16900
H388        H  0.11228750  0.68082673  0.20344842     0.16800
C389        C  0.08361519  0.83177671  0.02602127     0.43100
N390        N  0.03573365  0.88968176  0.97864281     0.02000
C391        C  0.05251544  0.16728123  0.00077831    -0.05800
H392        H  0.03155806  0.04097211  0.19711755     0.07500
C393        C  0.85094118  0.97887446  0.12222754    -0.06200
Co394      Co  0.08655492  0.00256303  0.00166508     0.74200
N395        N  0.04804666  0.02923125  0.11170854    -0.25400
Co396      Co  0.98828204  0.07594893  0.07152518     0.74100
C397        C  0.87816156  0.99507021  0.17704790     0.43200
N398        N  0.86822752  0.92459398  0.99121485     0.01700
N399        N  0.92735114  0.02883000  0.11111356     0.01800
N400        N  0.11760620  0.11300759  0.96363696    -0.46200
H401        H  0.15316426  0.89790231  0.05041153     0.07500
N402        N  0.08670660  0.00249962  0.08571777     0.02000
N403        N  0.92478800  0.11991975  0.03195419     0.01800
C404        C  0.87642607  0.18293809  0.99212384     0.43400
N405        N  0.90892593  0.89438165  0.97290448    -0.24800
C406        C  0.12142393  0.01775961  0.88214418    -0.05700
N407        N  0.03401881  0.83760002  0.99610507    -0.45900
N408        N  0.92403834  0.17410990  0.02358007    -0.46200
C409        C  0.10159156  0.99184030  0.82869162     0.43200
N410        N  0.08997661  0.08708278  0.00242904     0.02000
N411        N  0.91955689  0.98421554  0.89054735    -0.24800
N412        N  0.08162212  0.91787057  0.99836233    -0.25300
N413        N  0.87826891  0.00984148  0.91438696     0.01700
H414        H  0.94430304  0.97693985  0.80711810     0.07600
H415        H  0.80734178  0.11819229  0.96131893     0.07600
N416        N  0.05103641  0.11721521  0.02538770    -0.25400
N417        N  0.88272043  0.00434395  0.08477095    -0.25000
N418        N  0.04041550  0.97422940  0.89109269     0.02000
C419        C  0.11201357  0.99663075  0.17201443     0.43400
C420        C  0.89790034  0.84174168  0.98853754    -0.06300
N421        N  0.87982232  0.09304856  0.00891832    -0.25000
H422        H  0.80888250  0.96015841  0.11302292     0.07600
N423        N  0.12344235  0.97940732  0.11990188    -0.46200
H424        H  0.92407653  0.80697042  0.97983013     0.07600
C425        C  0.85776234  0.01187483  0.82674075     0.43300
C426        C  0.11592536  0.88428143  0.02491713    -0.05800
Co427      Co  0.97562989  0.93346287  0.93205093     0.73800
N428        N  0.82859227  0.89569075  0.01572761    -0.45900
C429        C  0.09539687  0.16268195  0.95867028     0.43500
N430        N  0.04862684  0.97034753  0.83754857    -0.45900
Co431      Co  0.87538595  0.00827929  0.99945403     0.73900
C432        C  0.84405953  0.12955188  0.98852006    -0.06300
C433        C  0.05559848  0.02070275  0.16568580    -0.05800
N434        N  0.08254061  0.00170504  0.91791097    -0.25300
N435        N  0.92856216  0.01958992  0.16459118    -0.46100
H436        H  0.02316632  0.20009844  0.00609841     0.07500
C437        C  0.91631255  0.99455599  0.83675862    -0.06200
Cl438      Cl  0.98132910  0.00500888  0.00117003    -0.49200
C439        C  0.84603193  0.84368253  0.02140230     0.43300
H440        H  0.16322869  0.03559286  0.89451100     0.07500
N441        N  0.84220751  0.03035035  0.87755926    -0.45900
C442        C  0.62852925  0.47340637  0.34024393     0.43100
N443        N  0.59586642  0.49579931  0.41907791     0.02000
C444        C  0.32464994  0.40653358  0.48610949    -0.05800
H445        H  0.31233024  0.55034109  0.37385665     0.07500
C446        C  0.45825397  0.67347859  0.50577316    -0.06200
Co447      Co  0.48104190  0.43706986  0.42029156     0.74200
N448        N  0.39341038  0.52241437  0.40161328    -0.25400
Co449      Co  0.38615518  0.51738360  0.48514560     0.74100
C450        C  0.41299966  0.68229769  0.46343005     0.43200
N451        N  0.57279557  0.60383432  0.53663120     0.01700
N452        N  0.40164453  0.60103102  0.49700414     0.01800
N453        N  0.39294644  0.34828933  0.46221247    -0.46200
H454        H  0.53857152  0.45824682  0.30163654     0.07500
N455        N  0.43121049  0.49244940  0.37712742     0.02000
N456        N  0.38334973  0.50957054  0.56891587     0.01800
C457        C  0.35067620  0.51435966  0.65037828     0.43400
N458        N  0.60982738  0.56927165  0.51888375    -0.24800
C459        C  0.53385502  0.32917219  0.47917515    -0.05700
N460        N  0.64284152  0.49656625  0.39095816    -0.45900
N461        N  0.33790780  0.49694148  0.59737962    -0.46200
C462        C  0.58905094  0.32283092  0.51030542     0.43200
N463        N  0.40860793  0.40116933  0.45447164     0.02000
N464        N  0.58402230  0.48085839  0.58706188    -0.24800
N465        N  0.55117727  0.47851155  0.38781345    -0.25300
N466        N  0.54551767  0.50988117  0.61135044     0.01700
H467        H  0.65932452  0.44281428  0.61813409     0.07600
H468        H  0.43784669  0.54544298  0.68749351     0.07600
N469        N  0.37057916  0.43500816  0.47201325    -0.25400
N470        N  0.44821893  0.62141971  0.52344973    -0.25000
N471        N  0.58010433  0.40741031  0.48966466     0.02000
C472        C  0.36842559  0.50605742  0.31292395     0.43400
C473        C  0.65885873  0.59566195  0.51120644    -0.06300
N474        N  0.42677548  0.52878794  0.60064947    -0.25000
H475        H  0.49606010  0.69934996  0.51599641     0.07600
N476        N  0.42113301  0.48784396  0.32320744    -0.46200
H477        H  0.69471881  0.57597007  0.49314582     0.07600
C478        C  0.60592749  0.49414975  0.67728270     0.43300
C479        C  0.56642708  0.47527066  0.33528601    -0.05800
Co480      Co  0.59291973  0.48843068  0.50336752     0.73800
N481        N  0.59264092  0.65633033  0.53361869    -0.45900
C482        C  0.34059910  0.34876075  0.48468450     0.43500
N483        N  0.61451772  0.37325222  0.51314407    -0.45900
Co484      Co  0.49830307  0.56799894  0.56929604     0.73900
C485        C  0.41256246  0.52555512  0.65337372    -0.06300
C486        C  0.35405172  0.53662940  0.36355174    -0.05800
N487        N  0.53369459  0.38380106  0.46613434    -0.25300
N488        N  0.37778268  0.63683545  0.46423083    -0.46100
H489        H  0.29008610  0.42529747  0.50719624     0.07500
C490        C  0.62037918  0.46340501  0.62643058    -0.06200
Cl491      Cl  0.48957421  0.50290871  0.49432733    -0.49200
C492        C  0.64670483  0.65426506  0.51486731     0.43300
H493        H  0.49994218  0.29819915  0.46918473     0.07500
N494        N  0.55275160  0.51087126  0.66555947    -0.45900
C495        C  0.16601981  0.78206413  0.16813145     0.00500
C496        C  0.12292836  0.82044341  0.17345915    -0.11300
C497        C  0.08365854  0.82811953  0.12892189     0.02800
C498        C  0.09011659  0.80049455  0.07714312     0.00400
C499        C  0.12732256  0.75729253  0.07419460    -0.11300
C500        C  0.16403385  0.74676762  0.11911044     0.02700
H501        H  0.11927820  0.84384252  0.21197800     0.15600
H502        H  0.13131688  0.73481709  0.03493818     0.15600
C503        C  0.19839656  0.69846750  0.11329367     0.37300
C504        C  0.03839000  0.86630720  0.13551559     0.37200
N505        N  0.22486783  0.65908536  0.10913447    -0.43100
N506        N  0.00113850  0.89589129  0.14037974    -0.43100
C507        C  0.42355561  0.70336482  0.40788221     0.00500
C508        C  0.40933070  0.75773762  0.39806678    -0.11300
C509        C  0.37388262  0.76745246  0.35191134     0.02800
C510        C  0.33979554  0.72152074  0.32709205     0.00400
C511        C  0.36643649  0.67028121  0.32682539    -0.11300
C512        C  0.41421745  0.66472222  0.36307781     0.02700
H513        H  0.42423801  0.79149302  0.42643094     0.15600
H514        H  0.35313269  0.63768313  0.29657735     0.15600
C515        C  0.45680577  0.62494091  0.35232994     0.37300
C516        C  0.37730710  0.82255976  0.32882635     0.37200
N517        N  0.49319558  0.59533449  0.34347558    -0.43100
N518        N  0.38055156  0.86653146  0.31019376    -0.43100
C519        C  0.30464507  0.32134829  0.65114455     0.00500
C520        C  0.26186250  0.33139720  0.60978035    -0.11300
C521        C  0.27058578  0.32600503  0.55386229     0.02800
C522        C  0.32618330  0.32066413  0.53579997     0.00400
C523        C  0.36973125  0.30931881  0.57496108    -0.11300
C524        C  0.35872360  0.30664080  0.63195569     0.02700
H525        H  0.21770186  0.33477628  0.61985525     0.15600
H526        H  0.41227398  0.30253876  0.56094006     0.15600
C527        C  0.40083805  0.28130045  0.66692166     0.37300
C528        C  0.22147755  0.33193284  0.51643653     0.37200
N529        N  0.43589206  0.25949113  0.69232474    -0.43100
N530        N  0.18048290  0.33741923  0.48913677    -0.43100
C531        C  0.10369476  0.19380649  0.90820444     0.00500
C532        C  0.13776939  0.24236303  0.91519882    -0.11300
C533        C  0.17192233  0.26022143  0.87264738     0.02800
C534        C  0.17434821  0.22708103  0.82258639     0.00400
C535        C  0.13520589  0.18265675  0.81355897    -0.11300
C536        C  0.09906548  0.16655920  0.85506275     0.02700
H537        H  0.14081123  0.26425192  0.95529393     0.15600
H538        H  0.13106462  0.16151830  0.77340372     0.15600
C539        C  0.05658644  0.12384025  0.83878516     0.37300
C540        C  0.20220836  0.31372826  0.88125736     0.37200
N541        N  0.02388152  0.09099877  0.81896295    -0.43100
N542        N  0.22521902  0.35719288  0.88756422    -0.43100
C543        C  0.84586468  0.02799733  0.21644218     0.00500
C544        C  0.78841699  0.03394087  0.20208187    -0.11300
C545        C  0.76686808  0.08682054  0.19797755     0.02800
C546        C  0.80280789  0.13547825  0.21182034     0.00400
C547        C  0.85776602  0.12710962  0.23523231    -0.11300
C548        C  0.87594447  0.07344599  0.24380014     0.02700
H549        H  0.76202656  0.99769503  0.18808583     0.15600
H550        H  0.88341538  0.16181576  0.25383290     0.15600
C551        C  0.92841218  0.06595359  0.27573928     0.37300
C552        C  0.70604038  0.08791066  0.18649020     0.37200
N553        N  0.97010891  0.05999428  0.30181015    -0.43100
N554        N  0.65712445  0.08735901  0.17785869    -0.43100
C555        C  0.65132153  0.41732514  0.33053616     0.00500
C556        C  0.61349816  0.37066675  0.31671405    -0.11300
C557        C  0.63303926  0.31693034  0.31444702     0.02800
C558        C  0.69127114  0.30940629  0.32297608     0.00400
C559        C  0.72450264  0.35199681  0.35103880    -0.11300
C560        C  0.70748707  0.40678159  0.34919624     0.02700
H561        H  0.56832187  0.37460242  0.30852090     0.15600
H562        H  0.76728807  0.34401074  0.36660489     0.15600
C563        C  0.74945669  0.45124269  0.36356158     0.37300
C564        C  0.59281466  0.26996094  0.30553264     0.37200
N565        N  0.78335367  0.48673861  0.37426974    -0.43100
N566        N  0.56060615  0.23225654  0.29904883    -0.43100
C567        C  0.67003032  0.65892791  0.70503907     0.00500
C568        C  0.69710659  0.62505639  0.66690227    -0.11300
C569        C  0.68606237  0.56718676  0.66492896     0.02800
C570        C  0.64274648  0.54302014  0.69795908     0.00400
C571        C  0.61447432  0.57901495  0.73390716    -0.11300
C572        C  0.62132722  0.63642378  0.72901623     0.02700
H573        H  0.73187750  0.64287586  0.64367712     0.15600
H574        H  0.57787909  0.56297692  0.75582759     0.15600
C575        C  0.57293611  0.67044990  0.73766848     0.37300
C576        C  0.72226056  0.53463403  0.63084394     0.37200
N577        N  0.53379217  0.69718064  0.74444092    -0.43100
N578        N  0.75185707  0.50937293  0.60335511    -0.43100
C579        C  0.79852457  0.84746626  0.80433438     0.00500
C580        C  0.76353242  0.88663277  0.82990233    -0.11300
C581        C  0.77437025  0.94395253  0.82731380     0.02800
C582        C  0.82261988  0.96458796  0.80041153     0.00400
C583        C  0.85074990  0.92721884  0.76623884    -0.11300
C584        C  0.84355182  0.86963133  0.77204144     0.02700
H585        H  0.72331453  0.87386283  0.84661488     0.15600
H586        H  0.88344766  0.94327625  0.73942951     0.15600
C587        C  0.87377166  0.83627169  0.73324518     0.37300
C588        C  0.73454683  0.98090897  0.85167997     0.37200
N589        N  0.89741920  0.81205834  0.69971216    -0.43100
N590        N  0.70271111  0.01046402  0.87123047    -0.43100
C591        C  0.83313423  0.22997387  0.83307323     0.00500
C592        C  0.86841706  0.18488578  0.83941786    -0.11300
C593        C  0.89546123  0.17693407  0.89141545     0.02800
C594        C  0.88122129  0.20940129  0.93815955     0.00400
C595        C  0.85435863  0.25873407  0.93038290    -0.11300
C596        C  0.83315018  0.27115983  0.87773690     0.02700
H597        H  0.87380706  0.15579830  0.80518348     0.15600
H598        H  0.84575820  0.28520177  0.96602394     0.15600
C599        C  0.80604029  0.32407331  0.87321025     0.37300
C600        C  0.93338300  0.13235673  0.89960235     0.37200
N601        N  0.78420391  0.36626015  0.86985257    -0.43100
N602        N  0.96402740  0.09806530  0.91218593    -0.43100
C603        C  0.60579713  0.28981173  0.55786860     0.00500
C604        C  0.66285464  0.27552796  0.55457899    -0.11300
C605        C  0.70095978  0.28458659  0.60015656     0.02800
C606        C  0.68027493  0.29121581  0.65439583     0.00400
C607        C  0.62229742  0.30245553  0.65851914    -0.11300
C608        C  0.58597175  0.30479082  0.61086687     0.02700
H609        H  0.68026787  0.26886706  0.51385671     0.15600
H610        H  0.60608110  0.31489530  0.69760834     0.15600
C611        C  0.53395887  0.33419562  0.61618713     0.37300
C612        C  0.76123369  0.28763101  0.58967152     0.37200
N613        N  0.49407446  0.36035968  0.62084518    -0.43100
N614        N  0.80933863  0.29172233  0.58076642    -0.43100
C615        C  0.20162424  0.85664518  0.79845774     0.00500
C616        C  0.14540266  0.85755233  0.77532153    -0.11300
C617        C  0.11619347  0.90625062  0.77318659     0.02800
C618        C  0.13986363  0.95451824  0.80072205     0.00400
C619        C  0.19783940  0.95657885  0.81715235    -0.11300
C620        C  0.22911890  0.90870396  0.81552182     0.02700
H621        H  0.12585259  0.82175388  0.75277572     0.15600
H622        H  0.21855900  0.99535320  0.83281982     0.15600
C623        C  0.29004542  0.91682055  0.82544549     0.37300
C624        C  0.06160465  0.90552463  0.74291234     0.37200
N625        N  0.33878819  0.92485084  0.83294982    -0.43100
N626        N  0.01794319  0.90525155  0.71878473    -0.43100
C627        C  0.31937665  0.67992275  0.69825887     0.00500
C628        C  0.33061646  0.63880081  0.73864937    -0.09700
C629        C  0.33148745  0.58231533  0.72498010     0.02800
C630        C  0.32361438  0.56480230  0.66957233     0.00400
C631        C  0.30881473  0.60381171  0.62944617    -0.11300
C632        C  0.30592701  0.66026856  0.64304384     0.02700
H633        H  0.33180102  0.64896891  0.78257449     0.15600
H634        H  0.30148405  0.59060537  0.58623498     0.15600
C635        C  0.28381486  0.69415468  0.59940915     0.37300
C636        C  0.34055299  0.54250060  0.76823360     0.37200
N637        N  0.26525634  0.71769392  0.56192049    -0.43100
N638        N  0.34725063  0.51017653  0.80252879    -0.43100
C639        C  0.70870948  0.67197148  0.35647947     0.00500
C640        C  0.65115969  0.68331812  0.36543785    -0.11300
C641        C  0.63154185  0.69084154  0.41940226     0.02800
C642        C  0.66789281  0.68294925  0.46595228     0.00400
C643        C  0.72562685  0.67576474  0.45772102    -0.11300
C644        C  0.74567385  0.66688221  0.40488876     0.02700
H645        H  0.62361376  0.69467479  0.33089350     0.15600
H646        H  0.75414098  0.67054644  0.49375691     0.15600
C647        C  0.80652204  0.66009176  0.40362767     0.37300
C648        C  0.58015386  0.72013117  0.42621329     0.37200
N649        N  0.85537886  0.65482847  0.40450040    -0.43100
N650        N  0.54144042  0.74768441  0.43128153    -0.43100
C651        C  0.82180000  0.79624283  0.18943771     0.00500
C652        C  0.87164187  0.78110214  0.16380422    -0.11300
C653        C  0.87904022  0.79081964  0.10739500     0.02800
C654        C  0.83871060  0.82191296  0.07781464     0.00400
C655        C  0.79437334  0.84503902  0.10748815    -0.11300
C656        C  0.78902335  0.83693240  0.16377581     0.02700
H657        H  0.90465745  0.76156925  0.18737055     0.15600
H658        H  0.76331910  0.87046302  0.08669972     0.15600
C659        C  0.74282748  0.86363036  0.19046937     0.37300
C660        C  0.92613649  0.76540395  0.08152884     0.37200
N661        N  0.70490280  0.88494537  0.21013900    -0.43100
N662        N  0.96350945  0.74338665  0.06160104    -0.43100
C663        C  0.32466674  0.34061003  0.28088978     0.00500
C664        C  0.33886021  0.37681280  0.23681951    -0.11300
C665        C  0.34144935  0.43447089  0.24313609     0.02800
C666        C  0.33081860  0.45874829  0.29453593     0.00400
C667        C  0.30974039  0.42451988  0.33655453    -0.11300
C668        C  0.30745358  0.36645416  0.33058023     0.02700
H669        H  0.34153136  0.36172706  0.19463004     0.15600
H670        H  0.29737674  0.44301512  0.37552069     0.15600
C671        C  0.27330483  0.33596376  0.36876264     0.37300
C672        C  0.35784039  0.46828528  0.19693338     0.37200
N673        N  0.24316689  0.31066554  0.39644213    -0.43100
N674        N  0.37087089  0.49522065  0.15986290    -0.43100
C675        C  0.19803875  0.14643592  0.19680248     0.00500
C676        C  0.22704287  0.10241957  0.17201175    -0.11300
C677        C  0.20678353  0.04717914  0.17459746     0.02800
C678        C  0.15525307  0.03490138  0.20059176     0.00400
C679        C  0.13418899  0.07585616  0.23543196    -0.11300
C680        C  0.15019599  0.13167479  0.22931647     0.02700
H681        H  0.26816674  0.10953585  0.15456379     0.15600
H682        H  0.09955232  0.06496165  0.26232077     0.15600
C683        C  0.12660048  0.16937984  0.26912231     0.37300
C684        C  0.23923639  0.00365758  0.15014314     0.37200
N685        N  0.10923332  0.19687967  0.30417475    -0.43100
N686        N  0.26518525  0.96876138  0.13064945    -0.43100
loop_ 
_geom_bond_atom_site_label_1 
_geom_bond_atom_site_label_2 
_geom_bond_distance 
_geom_bond_site_symmetry_2 
_ccdc_geom_bond_type 
C1            C3   1.558       .  S
C1            C5   1.552       .  S
C1            C4   1.557       .  S
C1          C675   1.513       .  S
C2            C6   1.556       .  S
C2            C8   1.583       .  S
C2            C7   1.543       .  S
C2          C663   1.525       .  S
C3           C11   1.401       .  A
C3            C6   1.387       .  A
C4           C15   1.412       .  A
C4            C7   1.368       .  A
C5           C19   1.378       .  A
C5            C8   1.380       .  A
C6            C9   1.386       .  A
C7           C13   1.381       .  A
C8           C16   1.432       .  A
C9           N10   1.356       .  A
C9           H22   1.083       .  S
N10          C11   1.365       .  A
N10         C284   1.458       .  S
C11          H12   1.082       .  S
C13          N14   1.345       .  A
C13          H23   1.076       .  S
N14          C15   1.380       .  A
N14          C45   1.473       .  S
C15          H21   1.082       .  S
C16          N17   1.387       .  A
C16          H18   1.082       .  S
N17          C19   1.342       .  A
N17         C101   1.484       .  S
C19          H20   1.076       .  S
N24          C29   1.358       .  A
N24          C28   1.360   1_455  A
N24          H56   1.044       .  S
N25          C32   1.362       .  A
N25          C33   1.363       .  A
N26          C31   1.366       .  A
N26          C30   1.365   1_455  A
N26          H57   1.041       .  S
N27          C34   1.363       .  A
N27          C35   1.366       .  A
C28          C36   1.385       .  A
C28          C44   1.420       .  A
C29          C45   1.418       .  A
C29          C37   1.379       .  A
C30          C38   1.387       .  A
C30          C47   1.437       .  A
C31          C46   1.440       .  A
C31          C39   1.387       .  A
C32          C44   1.437       .  A
C32          C40   1.387       .  A
C33          C47   1.432       .  A
C33          C41   1.385       .  A
C34          C42   1.390       .  A
C34          C45   1.443       .  A
C35          C43   1.383       .  A
C35          C46   1.433       .  A
C36          C37   1.370   1_655  A
C36          H48   1.081       .  S
C37          H49   1.071       .  S
C38          C39   1.383   1_655  A
C38          H50   1.082       .  S
C39          H51   1.082       .  S
C40          C41   1.382       .  A
C40          H52   1.082       .  S
C41          H53   1.082       .  S
C42          C43   1.382       .  A
C42          H54   1.082       .  S
C43          H55   1.082       .  S
C44         N333   1.469       .  S
C46         N379   1.477       .  S
C47          N71   1.473       .  S
C58          C60   1.559       .  S
C58          C62   1.553       .  S
C58          C61   1.571       .  S
C58         C651   1.520       .  S
C59          C63   1.566       .  S
C59          C65   1.541       .  S
C59          C64   1.560       .  S
C59         C639   1.524       .  S
C60          C68   1.379       .  A
C60          C63   1.391       .  A
C61          C72   1.407       .  A
C61          C64   1.391       .  A
C62          C76   1.414       .  A
C62          C65   1.368       .  A
C63          C66   1.412       .  A
C64          C70   1.401       .  A
C65          C73   1.381       .  A
C66          N67   1.375       .  A
C66          H79   1.081       .  S
N67          C68   1.351       .  A
N67         C249   1.469       .  S
C68          H69   1.078       .  S
C70          N71   1.363       .  A
C70          H80   1.082       .  S
N71          C72   1.362       .  A
C72          H78   1.075       .  S
C73          N74   1.350       .  A
C73          H75   1.079       .  S
N74          C76   1.375       .  A
N74         C135   1.471       .  S
C76          H77   1.082       .  S
N81          C86   1.367   1_545  A
N81          C85   1.366       .  A
N81         H113   1.041       .  S
N82          C89   1.365       .  A
N82          C90   1.364       .  A
N83          C88   1.362   1_545  A
N83          C87   1.361       .  A
N83         H114   1.041       .  S
N84          C91   1.361       .  A
N84          C92   1.361       .  A
C85          C93   1.393       .  A
C85         C101   1.452       .  A
C86         C102   1.434       .  A
C86          C94   1.382       .  A
C87          C95   1.383       .  A
C87         C104   1.425       .  A
C88         C103   1.438       .  A
C88          C96   1.391       .  A
C89         C101   1.431       .  A
C89          C97   1.382       .  A
C90         C104   1.442       .  A
C90          C98   1.389       .  A
C91          C99   1.388       .  A
C91         C102   1.435       .  A
C92         C100   1.382       .  A
C92         C103   1.425       .  A
C93          C94   1.386   1_545  A
C93         H105   1.082       .  S
C94         H106   1.082       .  S
C95          C96   1.385   1_545  A
C95         H107   1.082       .  S
C96         H108   1.082       .  S
C97          C98   1.382       .  A
C97         H109   1.080       .  S
C98         H110   1.082       .  S
C99         C100   1.380       .  A
C99         H111   1.082       .  S
C100        H112   1.081       .  S
C102        N382   1.477       .  S
C103        N158   1.470       .  S
C104        N359   1.474       .  S
N115        C120   1.362   1_565  A
N115        C119   1.362       .  A
N115        H147   1.042       .  S
N116        C123   1.359       .  A
N116        C124   1.360       .  A
N117        C122   1.364   1_565  A
N117        C121   1.363       .  A
N117        H148   1.042       .  S
N118        C125   1.360       .  A
N118        C126   1.359       .  A
C119        C127   1.381       .  A
C119        C135   1.425       .  A
C120        C136   1.441       .  A
C120        C128   1.391       .  A
C121        C129   1.393       .  A
C121        C138   1.446       .  A
C122        C137   1.428       .  A
C122        C130   1.382       .  A
C123        C135   1.434       .  A
C123        C131   1.389       .  A
C124        C138   1.422       .  A
C124        C132   1.383       .  A
C125        C133   1.383       .  A
C125        C136   1.424       .  A
C126        C134   1.384       .  A
C126        C137   1.431       .  A
C127        C128   1.384   1_565  A
C127        H139   1.078       .  S
C128        H140   1.082       .  S
C129        C130   1.386   1_565  A
C129        H141   1.082       .  S
C130        H142   1.082       .  S
C131        C132   1.379       .  A
C131        H143   1.082       .  S
C132        H144   1.082       .  S
C133        C134   1.381       .  A
C133        H145   1.082       .  S
C134        H146   1.079       .  S
C136        N336   1.471       .  S
C137        N222   1.471       .  S
C138        N313   1.472       .  S
C149        C151   1.574       .  S
C149        C153   1.564       .  S
C149        C152   1.543       .  S
C149        C627   1.521       .  S
C150        C154   1.541       .  S
C150        C156   1.545       .  S
C150        C155   1.543       .  S
C150        C615   1.505       .  S
C151        C159   1.418       .  A
C151        C154   1.384       .  A
C152        C163   1.382       .  A
C152        C155   1.369       .  A
C153        C167   1.391       .  A
C153        C156   1.387       .  A
C154        C157   1.377       .  A
C155        C161   1.396       .  A
C156        C164   1.392       .  A
C157        N158   1.347       .  A
C157        H170   1.082       .  S
N158        C159   1.378       .  A
C159        H160   1.080       .  S
C161        N162   1.367       .  A
C161        H171   1.082       .  S
N162        C163   1.353       .  A
N162        C192   1.459       .  S
C163        H169   1.082       .  S
C164        N165   1.364       .  A
C164        H166   1.082       .  S
N165        C167   1.363       .  A
N165        C251   1.463       .  S
C167        H168   1.083       .  S
N172        C177   1.362       .  A
N172        C176   1.358       .  A
N172        H204   1.041       .  S
N173        C180   1.358       .  A
N173        C181   1.358   1_455  A
N174        C179   1.364       .  A
N174        C178   1.364       .  A
N174        H205   1.042       .  S
N175        C182   1.362       .  A
N175        C183   1.360   1_455  A
C176        C184   1.387       .  A
C176        C192   1.428       .  A
C177        C193   1.427       .  A
C177        C185   1.386       .  A
C178        C186   1.389       .  A
C178        C195   1.439       .  A
C179        C194   1.430       .  A
C179        C187   1.384       .  A
C180        C192   1.419       .  A
C180        C188   1.384       .  A
C181        C195   1.420       .  A
C181        C189   1.381       .  A
C182        C190   1.385       .  A
C182        C193   1.430       .  A
C183        C191   1.386       .  A
C183        C194   1.431       .  A
C184        C185   1.381       .  A
C184        H196   1.082       .  S
C185        H197   1.082       .  S
C186        C187   1.383       .  A
C186        H198   1.082       .  S
C187        H199   1.082       .  S
C188        C189   1.372   1_455  A
C188        H200   1.081       .  S
C189        H201   1.074       .  S
C190        C191   1.379   1_455  A
C190        H202   1.082       .  S
C191        H203   1.082       .  S
C193        N356   1.467       .  S
C194        N219   1.468       .  S
C195        N310   1.472       .  S
C206        C208   1.543       .  S
C206        C210   1.574       .  S
C206        C209   1.533       .  S
C206        C591   1.526       .  S
C207        C211   1.568       .  S
C207        C213   1.559       .  S
C207        C212   1.565       .  S
C207        C606   1.537       .  S
C208        C216   1.384       .  A
C208        C211   1.385       .  A
C209        C220   1.381       .  A
C209        C212   1.377       .  A
C210        C224   1.419       .  A
C210        C213   1.396       .  A
C211        C214   1.405       .  A
C212        C218   1.411       .  A
C213        C221   1.380       .  A
C214        N215   1.372       .  A
C214        H227   1.075       .  S
N215        C216   1.353       .  A
N215        C286   1.469       .  S
C216        H217   1.082       .  S
C218        N219   1.376       .  A
C218        H228   1.082       .  S
N219        C220   1.353       .  A
C220        H226   1.083       .  S
C221        N222   1.349       .  A
C221        H223   1.081       .  S
N222        C224   1.380       .  A
C224        H225   1.081       .  S
N229        C234   1.362       .  A
N229        C233   1.364       .  A
N229        H261   1.044       .  S
N230        C237   1.359       .  A
N230        C238   1.361   1_554  A
N231        C236   1.358       .  A
N231        C235   1.357       .  A
N231        H262   1.043       .  S
N232        C239   1.360       .  A
N232        C240   1.362   1_554  A
C233        C241   1.384       .  A
C233        C249   1.429       .  A
C234        C250   1.436       .  A
C234        C242   1.390       .  A
C235        C243   1.387       .  A
C235        C252   1.423       .  A
C236        C251   1.422       .  A
C236        C244   1.386       .  A
C237        C249   1.433       .  A
C237        C245   1.389       .  A
C238        C252   1.423       .  A
C238        C246   1.382       .  A
C239        C247   1.386       .  A
C239        C250   1.430       .  A
C240        C248   1.381       .  A
C240        C251   1.424       .  A
C241        C242   1.382       .  A
C241        H253   1.082       .  S
C242        H254   1.082       .  S
C243        C244   1.378       .  A
C243        H255   1.082       .  S
C244        H256   1.082       .  S
C245        C246   1.380   1_554  A
C245        H257   1.082       .  S
C246        H258   1.082       .  S
C247        C248   1.374   1_554  A
C247        H259   1.075       .  S
C248        H260   1.082       .  S
C250        N375   1.473       .  S
C252        N306   1.457       .  S
N263        C268   1.357       .  A
N263        C267   1.358       .  A
N263        H295   1.041       .  S
N264        C271   1.366   1_556  A
N264        C272   1.362       .  A
N265        C270   1.360       .  A
N265        C269   1.357       .  A
N265        H296   1.043       .  S
N266        C273   1.360   1_556  A
N266        C274   1.361       .  A
C267        C275   1.385       .  A
C267        C283   1.421       .  A
C268        C284   1.421       .  A
C268        C276   1.386       .  A
C269        C277   1.389       .  A
C269        C286   1.425       .  A
C270        C285   1.419       .  A
C270        C278   1.382       .  A
C271        C283   1.433       .  A
C271        C279   1.382       .  A
C272        C286   1.441       .  A
C272        C280   1.389       .  A
C273        C281   1.382       .  A
C273        C284   1.424       .  A
C274        C282   1.384       .  A
C274        C285   1.432       .  A
C275        C276   1.378       .  A
C275        H287   1.082       .  S
C276        H288   1.082       .  S
C277        C278   1.379       .  A
C277        H289   1.082       .  S
C278        H290   1.081       .  S
C279        C280   1.384   1_554  A
C279        H291   1.082       .  S
C280        H292   1.079       .  S
C281        C282   1.378   1_554  A
C281        H293   1.082       .  S
C282        H294   1.075       .  S
C283        N329   1.468       .  S
C285        N352   1.470       .  S
C297        C299   1.579       .  S
C297        C301   1.558       .  S
C297        C300   1.551       .  S
C297        C567   1.524       .  S
C298        C302   1.546       .  S
C298        C304   1.539       .  S
C298        C303   1.565       .  S
C298        C579   1.523       .  S
C299        C307   1.400       .  A
C299        C302   1.390       .  A
C300        C311   1.381       .  A
C300        C303   1.389       .  A
C301        C315   1.420       .  A
C301        C304   1.371       .  A
C302        C305   1.398       .  A
C303        C309   1.406       .  A
C304        C312   1.372       .  A
C305        N306   1.357       .  A
C305        H318   1.082       .  S
N306        C307   1.356       .  A
C307        H308   1.077       .  S
C309        N310   1.376       .  A
C309        H319   1.082       .  S
N310        C311   1.351       .  A
C311        H317   1.075       .  S
C312        N313   1.340       .  A
C312        H314   1.073       .  S
N313        C315   1.381       .  A
C315        H316   1.082       .  S
C320        C322   1.576       .  S
C320        C324   1.547       .  S
C320        C323   1.559       .  S
C320        C558   1.511       .  S
C321        C325   1.541       .  S
C321        C327   1.543       .  S
C321        C326   1.557       .  S
C321        C546   1.506       .  S
C322        C330   1.401       .  A
C322        C325   1.387       .  A
C323        C334   1.388       .  A
C323        C326   1.391       .  A
C324        C338   1.413       .  A
C324        C327   1.364       .  A
C325        C328   1.394       .  A
C326        C332   1.402       .  A
C327        C335   1.382       .  A
C328        N329   1.360       .  A
C328        H341   1.082       .  S
N329        C330   1.370       .  A
C330        H331   1.081       .  S
C332        N333   1.372       .  A
C332        H342   1.082       .  S
N333        C334   1.349       .  A
C334        H340   1.075       .  S
C335        N336   1.348       .  A
C335        H337   1.079       .  S
N336        C338   1.377       .  A
C338        H339   1.082       .  S
C343        C345   1.570       .  S
C343        C347   1.548       .  S
C343        C346   1.565       .  S
C343        C519   1.524       .  S
C344        C348   1.544       .  S
C344        C350   1.575       .  S
C344        C349   1.535       .  S
C344        C534   1.505       .  S
C345        C353   1.408       .  A
C345        C348   1.393       .  A
C346        C357   1.407       .  A
C346        C349   1.365       .  A
C347        C361   1.379       .  A
C347        C350   1.381       .  A
C348        C351   1.377       .  A
C349        C355   1.390       .  A
C350        C358   1.424       .  A
C351        N352   1.355       .  A
C351        H364   1.082       .  S
N352        C353   1.378       .  A
C353        H354   1.081       .  S
C355        N356   1.358       .  A
C355        H365   1.083       .  S
N356        C357   1.368       .  A
C357        H363   1.083       .  S
C358        N359   1.381       .  A
C358        H360   1.081       .  S
N359        C361   1.345       .  A
C361        H362   1.080       .  S
C366        C368   1.527       .  S
C366        C370   1.554       .  S
C366        C369   1.574       .  S
C366        C510   1.528       .  S
C367        C371   1.553       .  S
C367        C373   1.580       .  S
C367        C372   1.554       .  S
C367        C495   1.531       .  S
C368        C376   1.380       .  A
C368        C371   1.368       .  A
C369        C380   1.418       .  A
C369        C372   1.392       .  A
C370        C384   1.379       .  A
C370        C373   1.391       .  A
C371        C374   1.398       .  A
C372        C378   1.382       .  A
C373        C381   1.422       .  A
C374        N375   1.373       .  A
C374        H387   1.081       .  S
N375        C376   1.361       .  A
C376        H377   1.081       .  S
C378        N379   1.354       .  A
C378        H388   1.083       .  S
N379        C380   1.383       .  A
C380        H386   1.082       .  S
C381        N382   1.382       .  A
C381        H383   1.081       .  S
N382        C384   1.350       .  A
C384        H385   1.082       .  S
C389        N407   1.358   1_554  A
C389        C426   1.444       .  S
C389        C498   1.463       .  S
N390        N407   1.328       .  A
N390        N412   1.313       .  A
N390       Co427   2.100   1_455  S
C391        N416   1.352       .  A
C391        H436   1.077       .  S
C391        C429   1.461   1_554  S
H392        C433   1.080       .  S
C393        N417   1.335   1_565  A
C393        H422   1.079       .  S
C393        C397   1.479       .  S
Co394       N412   2.030   1_544  S
Co394       N402   2.023       .  S
Co394       N434   2.014   1_554  S
Co394       N410   2.026       .  S
Co394      Cl438   2.471   1_455  S
N395        C433   1.326       .  A
N395        N402   1.304       .  A
N395       Co396   2.059   1_455  S
Co396       N399   2.061       .  S
Co396       N416   2.106   1_655  S
Co396       N403   2.077       .  S
Co396      Cl438   2.368       .  S
C397        N435   1.345   1_565  A
C397        C543   1.473   1_565  S
N398        N405   1.307       .  A
N398        N428   1.304   1_556  A
N398       Co431   2.013   1_565  S
N399        N417   1.312       .  A
N399        N435   1.311       .  A
N400        C429   1.328       .  A
N400        N410   1.311   1_556  A
H401        C426   1.082       .  S
N402        N423   1.317   1_545  A
N403        N421   1.309       .  A
N403        N408   1.322       .  A
C404        N408   1.352   1_556  A
C404        C432   1.460       .  S
C404        C594   1.466       .  S
N405        C420   1.344       .  A
N405       Co427   2.082       .  S
C406        N434   1.330       .  A
C406        H440   1.081       .  S
C406        C409   1.466   1_545  S
C409        N430   1.351       .  A
C409        C618   1.466       .  S
N410        N416   1.319       .  A
N411        C437   1.324       .  A
N411        N413   1.313   1_565  A
N411       Co427   2.075       .  S
N412        C426   1.322   1_556  A
N413        N441   1.320       .  A
N413       Co431   2.052       .  S
H414        C437   1.079       .  S
H415        C432   1.083       .  S
N417       Co431   2.059   1_554  S
N418        N430   1.312       .  A
N418        N434   1.304   1_565  A
N418       Co427   2.067   1_455  S
C419        N423   1.352       .  A
C419        C433   1.471   1_565  S
C419        C678   1.477   1_565  S
C420        H424   1.079       .  S
C420        C439   1.479   1_556  S
N421        C432   1.328   1_554  A
N421       Co431   2.040   1_554  S
C425        N441   1.360       .  A
C425        C437   1.465   1_545  S
C425        C582   1.488   1_545  S
Co427      Cl438   2.358   1_566  S
N428        C439   1.339       .  A
C429        C531   1.456       .  S
Co431      Cl438   2.489   1_556  S
C439        C654   1.480       .  S
C442        N460   1.353       .  A
C442        C479   1.460       .  S
C442        C555   1.486       .  S
N443        N460   1.315       .  A
N443        N465   1.313       .  A
N443       Co480   2.044       .  S
C444        N469   1.311       .  A
C444        H489   1.082       .  S
C444        C482   1.452       .  S
H445        C486   1.082       .  S
C446        N470   1.344       .  A
C446        H475   1.077       .  S
C446        C450   1.468       .  S
Co447       N465   2.075       .  S
Co447       N455   2.078       .  S
Co447       N487   2.116       .  S
Co447       N463   2.079       .  S
Co447      Cl491   2.350       .  S
N448        C486   1.336       .  A
N448        N455   1.314       .  A
N448       Co449   2.030       .  S
Co449       N452   2.036       .  S
Co449       N469   2.010       .  S
Co449       N456   2.033       .  S
Co449      Cl491   2.468       .  S
C450        N488   1.341       .  A
C450        C507   1.467       .  S
N451        N458   1.304       .  A
N451        N481   1.329       .  A
N451       Co484   2.103       .  S
N452        N470   1.313       .  A
N452        N488   1.309       .  A
N453        C482   1.361       .  A
N453        N463   1.325       .  A
H454        C479   1.081       .  S
N455        N476   1.311       .  A
N456        N474   1.310       .  A
N456        N461   1.318       .  A
C457        N461   1.351       .  A
C457        C485   1.464       .  S
C457        C630   1.464       .  S
N458        C473   1.311       .  A
N458       Co480   1.987       .  S
C459        N487   1.356       .  A
C459        H493   1.081       .  S
C459        C462   1.486       .  S
C462        N483   1.325       .  A
C462        C603   1.459       .  S
N463        N469   1.307       .  A
N464        C490   1.337       .  A
N464        N466   1.311       .  A
N464       Co480   2.045       .  S
N465        C479   1.329       .  A
N466        N494   1.309       .  A
N466       Co484   2.076       .  S
H467        C490   1.080       .  S
H468        C485   1.083       .  S
N470       Co484   2.083       .  S
N471        N483   1.299       .  A
N471        N487   1.308       .  A
N471       Co480   1.973       .  S
C472        N476   1.345       .  A
C472        C486   1.465       .  S
C472        C666   1.457       .  S
C473        H477   1.083       .  S
C473        C492   1.448       .  S
N474        C485   1.328       .  A
N474       Co484   2.066       .  S
C478        N494   1.348       .  A
C478        C490   1.472       .  S
C478        C570   1.490       .  S
Co480      Cl491   2.466       .  S
N481        C492   1.365       .  A
C482        C522   1.461       .  S
Co484      Cl491   2.355       .  S
C492        C642   1.470       .  S
C495        C496   1.404       .  A
C495        C500   1.434       .  A
C496        C497   1.407       .  A
C496        H501   1.080       .  S
C497        C498   1.414       .  A
C497        C504   1.443       .  S
C498        C499   1.386       .  A
C499        C500   1.391       .  A
C499        H502   1.086       .  S
C500        C503   1.447       .  S
C503        N505   1.158       .  T
C504        N506   1.157       .  T
C507        C508   1.384       .  A
C507        C512   1.410       .  A
C508        C509   1.392       .  A
C508        H513   1.084       .  S
C509        C510   1.437       .  A
C509        C516   1.447       .  S
C510        C511   1.403       .  A
C511        C512   1.406       .  A
C511        H514   1.083       .  S
C512        C515   1.438       .  S
C515        N517   1.157       .  T
C516        N518   1.157       .  T
C519        C520   1.418       .  A
C519        C524   1.423       .  A
C520        C521   1.373       .  A
C520        H525   1.079       .  S
C521        C522   1.401       .  A
C521        C528   1.449       .  S
C522        C523   1.403       .  A
C523        C524   1.408       .  A
C523        H526   1.084       .  S
C524        C527   1.437       .  S
C527        N529   1.157       .  T
C528        N530   1.158       .  T
C531        C532   1.387       .  A
C531        C536   1.421       .  A
C532        C533   1.389       .  A
C532        H537   1.086       .  S
C533        C534   1.432       .  A
C533        C540   1.447       .  S
C534        C535   1.384       .  A
C535        C536   1.386       .  A
C535        H538   1.080       .  S
C536        C539   1.435       .  S
C539        N541   1.157       .  T
C540        N542   1.158       .  T
C543        C544   1.392       .  A
C543        C548   1.409       .  A
C544        C545   1.391       .  A
C544        H549   1.085   1_545  S
C545        C546   1.435       .  A
C545        C552   1.444       .  S
C546        C547   1.411       .  A
C547        C548   1.392       .  A
C547        H550   1.084       .  S
C548        C551   1.446       .  S
C551        N553   1.157       .  T
C552        N554   1.158       .  T
C555        C556   1.423       .  A
C555        C560   1.411       .  A
C556        C557   1.388       .  A
C556        H561   1.079       .  S
C557        C558   1.394       .  A
C557        C564   1.445       .  S
C558        C559   1.402       .  A
C559        C560   1.392       .  A
C559        H562   1.084       .  S
C560        C563   1.447       .  S
C563        N565   1.157       .  T
C564        N566   1.157       .  T
C567        C568   1.400       .  A
C567        C572   1.394       .  A
C568        C569   1.401       .  A
C568        H573   1.085       .  S
C569        C570   1.427       .  A
C569        C576   1.444       .  S
C570        C571   1.412       .  A
C571        C572   1.389       .  A
C571        H574   1.086       .  S
C572        C575   1.446       .  S
C575        N577   1.157       .  T
C576        N578   1.158       .  T
C579        C580   1.419       .  A
C579        C584   1.428       .  A
C580        C581   1.392       .  A
C580        H585   1.075       .  S
C581        C582   1.404       .  A
C581        C588   1.447       .  S
C582        C583   1.405       .  A
C583        C584   1.396       .  A
C583        H586   1.086       .  S
C584        C587   1.442       .  S
C587        N589   1.156       .  T
C588        N590   1.157   1_565  T
C591        C592   1.398       .  A
C591        C596   1.443       .  A
C592        C593   1.402       .  A
C592        H597   1.082       .  S
C593        C594   1.412       .  A
C593        C600   1.433       .  S
C594        C595   1.378       .  A
C595        C596   1.387       .  A
C595        H598   1.086       .  S
C596        C599   1.449       .  S
C599        N601   1.157       .  T
C600        N602   1.154       .  T
C603        C604   1.401       .  A
C603        C608   1.418       .  A
C604        C605   1.395       .  A
C604        H609   1.087       .  S
C605        C606   1.418       .  A
C605        C612   1.445       .  S
C606        C607   1.405       .  A
C607        C608   1.406       .  A
C607        H610   1.069       .  S
C608        C611   1.444       .  S
C611        N613   1.157       .  T
C612        N614   1.157       .  T
C615        C616   1.413       .  A
C615        C620   1.425       .  A
C616        C617   1.381       .  A
C616        H621   1.080       .  S
C617        C618   1.403       .  A
C617        C624   1.448       .  S
C618        C619   1.400       .  A
C619        C620   1.390       .  A
C619        H622   1.084       .  S
C620        C623   1.444       .  S
C623        N625   1.158       .  T
C624        N626   1.157       .  T
C627        C628   1.427       .  A
C627        C632   1.419       .  A
C628        C629   1.389       .  A
C628        H633   1.078       .  S
C629        C630   1.391       .  A
C629        C636   1.446       .  S
C630        C631   1.406       .  A
C631        C632   1.391       .  A
C631        H634   1.085       .  S
C632        C635   1.438       .  S
C635        N637   1.157       .  T
C636        N638   1.157       .  T
C639        C640   1.412       .  A
C639        C644   1.436       .  A
C640        C641   1.405       .  A
C640        H645   1.080       .  S
C641        C642   1.403       .  A
C641        C648   1.434       .  S
C642        C643   1.394       .  A
C643        C644   1.388       .  A
C643        H646   1.087       .  S
C644        C647   1.445       .  S
C647        N649   1.158       .  T
C648        N650   1.155       .  T
C651        C652   1.401       .  A
C651        C656   1.408       .  A
C652        C653   1.399       .  A
C652        H657   1.073       .  S
C653        C654   1.412       .  A
C653        C660   1.440       .  S
C654        C655   1.410       .  A
C655        C656   1.383       .  A
C655        H658   1.085       .  S
C656        C659   1.447       .  S
C659        N661   1.157       .  T
C660        N662   1.157       .  T
C663        C664   1.428       .  A
C663        C668   1.415       .  A
C664        C665   1.387       .  A
C664        H669   1.075       .  S
C665        C666   1.391       .  A
C665        C672   1.447       .  S
C666        C667   1.409       .  A
C667        C668   1.396       .  A
C667        H670   1.083       .  S
C668        C671   1.436       .  S
C671        N673   1.154       .  T
C672        N674   1.157       .  T
C675        C676   1.414       .  A
C675        C680   1.430       .  A
C676        C677   1.393       .  A
C676        H681   1.076       .  S
C677        C678   1.406       .  A
C677        C684   1.446       .  S
C678        C679   1.396       .  A
C679        C680   1.388       .  A
C679        H682   1.085       .  S
C680        C683   1.444       .  S
C683        N685   1.156       .  T
C684        N686   1.157   1_545  T
