geometry optimzed in LAMMPS
_audit_creation_date              2020-12-01 
_audit_creation_method            'lammps2cif' 
_symmetry_space_group_name_H-M    'P1' 
_symmetry_Int_Tables_number       1 
_symmetry_cell_setting            triclinic 
loop_ 
_symmetry_equiv_pos_as_xyz 
  x,y,z 
_cell_length_a                    48.91343326 
_cell_length_b                    49.31416268072363 
_cell_length_c                    43.668839927045674 
_cell_angle_alpha                 90.4159291269537 
_cell_angle_beta                  89.00170265007941 
_cell_angle_gamma                 120.41329456830195 
loop_ 
_atom_site_label 
_atom_site_type_symbol 
_atom_site_fract_x 
_atom_site_fract_y 
_atom_site_fract_z 
_atom_site_charge 
O1          O  0.67200644  0.65300200  0.70681397    -0.56600
C2          C  0.68877080  0.63986888  0.79997357     0.76000
O3          O  0.76974051  0.69006717  0.73310053    -0.57800
C4          C  0.68782166  0.67451411  0.68725442     0.76000
C5          C  0.71104365  0.72834009  0.77174887     0.78400
Cd6        Cd  0.71417055  0.67609368  0.74541954     1.37500
O7          O  0.67234038  0.63179018  0.77585897    -0.56600
O8          O  0.68748698  0.70406268  0.76093001    -0.55400
C9          C  0.76259472  0.66244160  0.72506532     0.78300
O10         O  0.73779272  0.73002894  0.76885020    -0.57800
O11         O  0.71696436  0.66267060  0.79766309    -0.56300
O12         O  0.71536818  0.69585632  0.69472995    -0.56200
O13         O  0.73361943  0.64137622  0.72757770    -0.55400
O14         O  0.64650491  0.69080833  0.43935118    -0.56600
C15         C  0.60312019  0.66370492  0.35300516     0.76000
O16         O  0.54639149  0.65213217  0.43937151    -0.57800
C17         C  0.64030760  0.70085254  0.46380716     0.76000
C18         C  0.61112685  0.74406876  0.39253862     0.78400
Cd19       Cd  0.59925844  0.68378145  0.41319810     1.37500
O20         O  0.62427843  0.66902741  0.37239584    -0.56600
O21         O  0.63250661  0.73691321  0.39430078    -0.55400
C22         C  0.55033073  0.62901325  0.44465928     0.78300
O23         O  0.58355321  0.72361567  0.40208884    -0.57800
O24         O  0.57924659  0.66517731  0.36240403    -0.56300
O25         O  0.61680193  0.70503761  0.46355421    -0.56200
O26         O  0.57500472  0.63052959  0.43318217    -0.55400
O27         O  0.63517759  0.60173407  0.04611020    -0.56600
C28         C  0.59559747  0.59194070  0.13709245     0.76000
O29         O  0.57824880  0.51169328  0.08153606    -0.57800
C30         C  0.64794838  0.58798375  0.03247741     0.76000
C31         C  0.67294273  0.57819262  0.12763209     0.78400
Cd32       Cd  0.61950387  0.56780844  0.09154441     1.37500
O33         O  0.61361056  0.60966771  0.11569883    -0.56600
O34         O  0.67016032  0.60008965  0.11597711    -0.55400
C35         C  0.55991101  0.51920994  0.06844755     0.78300
O36         O  0.65068032  0.55020467  0.12239926    -0.57800
O37         O  0.58770899  0.56322672  0.13622093    -0.56300
O38         O  0.64873663  0.56617505  0.04679971    -0.56200
O39         O  0.56939796  0.54826577  0.06668409    -0.55400
O40         O  0.98830664  0.34999735  0.10211835    -0.56600
C41         C  0.94972251  0.33351984  0.01232838     0.76000
O42         O  0.88970719  0.31608491  0.09766079    -0.57800
C43         C  0.98832408  0.36779220  0.12326229     0.76000
C44         C  0.95293655  0.40926962  0.05711590     0.78400
Cd45       Cd  0.94416517  0.34915427  0.07437469     1.37500
O46         O  0.97157024  0.33996868  0.03123255    -0.56600
O47         O  0.97439378  0.40220130  0.05461965    -0.55400
C48         C  0.89336549  0.29279506  0.10282726     0.78300
O49         O  0.92662105  0.38852421  0.06891678    -0.57800
O50         O  0.92462730  0.33187317  0.02281643    -0.56300
O51         O  0.96905495  0.37760036  0.12094399    -0.56200
O52         O  0.91933824  0.29548549  0.09383157    -0.55400
O53         O  0.96264453  0.29725122  0.77017252    -0.56600
C54         C  0.99844329  0.27912075  0.68759911     0.76000
O55         O  0.99072045  0.22954233  0.77420128    -0.57800
C56         C  0.94116358  0.27901645  0.78901282     0.76000
C57         C  0.90761153  0.20453795  0.71809444     0.78400
Cd58       Cd  0.96529839  0.25396853  0.74431100     1.37500
O59         O  0.98188755  0.28964079  0.69966456    -0.56600
O60         O  0.91635772  0.23340557  0.71623725    -0.55400
C61         C  0.01206145  0.25554049  0.78523219     0.78300
O62         O  0.92563865  0.19772736  0.73268753    -0.57800
O63         O  0.00097631  0.25868924  0.70257300    -0.56300
O64         O  0.92974195  0.24978935  0.78545430    -0.56200
O65         O  0.01182209  0.27990641  0.77678075    -0.55400
O66         O  0.02819711  0.31779524  0.43219696    -0.56600
C67         C  0.04483692  0.35671252  0.34226494     0.76000
O68         O  0.08808979  0.41572218  0.42554435    -0.57800
C69         C  0.04553588  0.32450240  0.45555943     0.76000
C70         C  0.11991608  0.35380312  0.38244788     0.78400
Cd71       Cd  0.06886281  0.36277484  0.40231012     1.37500
O72         O  0.03005512  0.33512202  0.36198810    -0.56600
O73         O  0.09122145  0.33191697  0.38374902    -0.55400
C74         C  0.06021976  0.41072575  0.43061346     0.78300
O75         O  0.12591471  0.38072039  0.39186212    -0.57800
O76         O  0.06923866  0.38159062  0.35113582    -0.56300
O77         O  0.07405053  0.34660151  0.45278536    -0.56200
O78         O  0.03759922  0.38522261  0.42052852    -0.55400
O79         O  0.94918355  0.67497655  0.29407914    -0.56600
C80         C  0.97897804  0.70602770  0.19961358     0.76000
O81         O  0.91660193  0.72846013  0.24155625    -0.57800
C82         C  0.94097867  0.68700218  0.31565614     0.76000
C83         C  0.01875234  0.76383158  0.27799924     0.78400
Cd84       Cd  0.95768992  0.71557990  0.25709088     1.37500
O85         O  0.97161821  0.68610507  0.22107986    -0.56600
O86         O  0.01211139  0.73606630  0.27174752    -0.55400
C87         C  0.89587139  0.69996851  0.23578373     0.78300
O88         O  0.99717274  0.77052656  0.27322077    -0.57800
O89         O  0.97643167  0.72995605  0.20515347    -0.56300
O90         O  0.93891303  0.71093263  0.30935595    -0.56200
O91         O  0.90362349  0.67949449  0.24091705    -0.55400
O92         O  0.00900609  0.66182103  0.87741736    -0.56600
C93         C  0.03022103  0.69851093  0.96931910     0.76000
O94         O  0.07539119  0.65108287  0.93547848    -0.57800
C95         C  0.02445928  0.65569473  0.85765134     0.76000
C96         C  0.09923297  0.74365343  0.89351533     0.78400
Cd97       Cd  0.05176456  0.68212962  0.91532007     1.37500
O98         O  0.01304973  0.68980917  0.94567591    -0.56600
O99         O  0.07005040  0.73490150  0.89535336    -0.55400
C100        C  0.04870159  0.62799667  0.94388282     0.78300
O101        O  0.10710451  0.72420499  0.90281064    -0.57800
O102        O  0.05723987  0.70099159  0.96689258    -0.56300
O103        O  0.05181544  0.66143499  0.86498358    -0.56200
O104        O  0.02450254  0.62988927  0.93788157    -0.55400
O105        O  0.97950156  0.59787554  0.60736253    -0.56600
C106        C  0.92800105  0.57789062  0.52271083     0.76000
O107        O  0.92225821  0.50175893  0.57239922    -0.57800
C108        C  0.97334830  0.58263048  0.63231042     0.76000
C109        C  0.88118122  0.55933265  0.61246784     0.78400
Cd110      Cd  0.93215863  0.55600602  0.58168722     1.37500
O111        O  0.94958240  0.59597795  0.54103632    -0.56600
O112        O  0.90634786  0.58305005  0.60259228    -0.55400
C113        C  0.94922331  0.51109631  0.55973992     0.78300
O114        O  0.87824490  0.53257170  0.60704089    -0.57800
O115        O  0.90839623  0.55041284  0.53207179    -0.56300
O116        O  0.94982421  0.55483052  0.63260062    -0.56200
O117        O  0.96802113  0.54054581  0.55858326    -0.55400
O118        O  0.28646107  0.00238616  0.70772014    -0.56600
C119        C  0.30995573  0.03610942  0.79929001     0.76000
O120        O  0.25399635  0.06208252  0.74304736    -0.57800
C121        C  0.26374052  0.99748943  0.69047341     0.76000
C122        C  0.21563792  0.96481463  0.78221107     0.78400
Cd123      Cd  0.26614815  0.01941966  0.75114392     1.37500
O124        O  0.30923558  0.01819612  0.77788477    -0.56600
O125        O  0.24008270  0.96596504  0.77066726    -0.55400
C126        C  0.28120012  0.08109911  0.73153069     0.78300
O127        O  0.21329171  0.98915679  0.77867970    -0.57800
O128        O  0.29213703  0.04764733  0.79702856    -0.56300
O129        O  0.24224348  0.00174435  0.70181965    -0.56200
O130        O  0.30099154  0.07171454  0.73010220    -0.55400
O131        O  0.30889930  0.94161557  0.38207644    -0.56600
C132        C  0.27450718  0.91536430  0.47625488     0.76000
O133        O  0.25200990  0.84652281  0.40515030    -0.57800
C134        C  0.32027536  0.92963889  0.36363048     0.76000
C135        C  0.34979990  0.90681382  0.44827501     0.78400
Cd136      Cd  0.29394998  0.90026300  0.42064619     1.37500
O137        O  0.28840659  0.93630120  0.45565183    -0.56600
O138        O  0.34619310  0.92972520  0.44151173    -0.55400
C139        C  0.23386657  0.85610809  0.39561152     0.78300
O140        O  0.32748678  0.87949326  0.44096227    -0.57800
O141        O  0.26780718  0.88761998  0.46984853    -0.56300
O142        O  0.32005426  0.90503962  0.37216182    -0.56200
O143        O  0.24339351  0.88507968  0.39890296    -0.55400
O144        O  0.34351877  0.98561954  0.03956606    -0.56600
C145        C  0.35983389  0.98506016  0.13661064     0.76000
O146        O  0.43881804  0.02605106  0.06725968    -0.57800
C147        C  0.35795597  0.00702403  0.01957225     0.76000
C148        C  0.38414962  0.06856325  0.10162549     0.78400
Cd149      Cd  0.38410023  0.01404877  0.07886644     1.37500
O150        O  0.34189356  0.97574859  0.11352111    -0.56600
O151        O  0.35931779  0.04322695  0.09463396    -0.55400
C152        C  0.43066636  0.99766505  0.06151517     0.78300
O153        O  0.41049988  0.07017609  0.09572234    -0.57800
O154        O  0.38892220  0.00469990  0.13176834    -0.56300
O155        O  0.38317911  0.03143321  0.02774035    -0.56200
O156        O  0.40167298  0.97724560  0.06555165    -0.55400
O157        O  0.69014845  0.02314200  0.28348368    -0.56600
C158        C  0.69519318  0.99353408  0.19039667     0.76000
O159        O  0.78208548  0.05635513  0.23184976    -0.57800
C160        C  0.71151216  0.03792262  0.30319110     0.76000
C161        C  0.71930432  0.96140436  0.27494148     0.78400
Cd162      Cd  0.72624900  0.01748383  0.24731040     1.37500
O163        O  0.68338190  0.00375667  0.21030929    -0.56600
O164        O  0.69632239  0.96542372  0.26930698    -0.55400
C165        C  0.77524603  0.07624755  0.22152194     0.78300
O166        O  0.74671387  0.98328130  0.26650374    -0.57800
O167        O  0.72003886  0.99330289  0.19767482    -0.56300
O168        O  0.73949327  0.04494908  0.29594087    -0.56200
O169        O  0.74648270  0.06903071  0.22390018    -0.55400
O170        O  0.63738756  0.00578303  0.55176797    -0.56600
C171        C  0.60747874  0.00813250  0.64875567     0.76000
O172        O  0.66454166  0.09167233  0.60173830    -0.57800
C173        C  0.64458713  0.02624124  0.53083082     0.76000
C174        C  0.56416442  0.01961005  0.56888475     0.78400
Cd175      Cd  0.62556092  0.03571943  0.58982497     1.37500
O176        O  0.61651004  0.99585821  0.62810506    -0.56600
O177        O  0.57296689  0.99962561  0.57177680    -0.55400
C178        C  0.68561567  0.08557268  0.61040281     0.78300
O179        O  0.58365574  0.04776738  0.57696927    -0.57800
O180        O  0.60536427  0.03178171  0.64132346    -0.56300
O181        O  0.64438462  0.05109869  0.53805391    -0.56200
O182        O  0.67886846  0.05718872  0.60850122    -0.55400
O183        O  0.61185585  0.92167285  0.87804052    -0.56600
C184        C  0.62833788  0.90238566  0.97242257     0.76000
O185        O  0.53473469  0.85964145  0.94140077    -0.57800
C186        C  0.58835736  0.90574176  0.86067182     0.76000
C187        C  0.60435416  0.83657616  0.89439901     0.78400
Cd188      Cd  0.58966017  0.88174662  0.91930211     1.37500
O189        O  0.63236102  0.92160016  0.95115651    -0.56600
O190        O  0.62382164  0.86593262  0.89392236    -0.55400
C191        C  0.53917924  0.88682914  0.94773425     0.78300
O192        O  0.57761405  0.82744201  0.90753416    -0.57800
O193        O  0.60815482  0.87368145  0.96800556    -0.56300
O194        O  0.56597111  0.87996251  0.87100997    -0.56200
O195        O  0.56581132  0.91008294  0.94013055    -0.55400
O196        O  0.31756382  0.27655421  0.21494684    -0.56600
C197        C  0.31665517  0.25475109  0.31450496     0.76000
O198        O  0.23193992  0.22010532  0.27176614    -0.57800
C199        C  0.29528745  0.26203702  0.19594001     0.76000
C200        C  0.29719492  0.18867978  0.23398076     0.78400
Cd201      Cd  0.28761302  0.23811057  0.25610631     1.37500
O202        O  0.32866724  0.27420898  0.29239533    -0.56600
O203        O  0.31960242  0.21694057  0.23607350    -0.55400
C204        C  0.23727307  0.24794867  0.27586897     0.78300
O205        O  0.27021070  0.18241931  0.24458483    -0.57800
O206        O  0.29372050  0.22763061  0.30850582    -0.56300
O207        O  0.26998453  0.23836273  0.20576575    -0.56200
O208        O  0.26492192  0.27024323  0.26934429    -0.55400
O209        O  0.27804445  0.31295845  0.95798982    -0.56600
C210        C  0.30239938  0.35724681  0.87116669     0.76000
O211        O  0.24021970  0.37394237  0.92537396    -0.57800
C212        C  0.26251472  0.31422687  0.98098893     0.76000
C213        C  0.33697193  0.40792447  0.96131281     0.78400
Cd214      Cd  0.28085377  0.35842897  0.93224062     1.37500
O215        O  0.29839700  0.33651513  0.89060529    -0.56600
O216        O  0.33500491  0.38340150  0.94990003    -0.55400
C217        C  0.21967390  0.34730053  0.91479097     0.78300
O218        O  0.31282837  0.41095619  0.95843493    -0.57800
O219        O  0.29703182  0.37859624  0.88022048    -0.56300
O220        O  0.25400637  0.33452387  0.98037265    -0.56200
O221        O  0.22740824  0.32638245  0.91333311    -0.55400
O222        O  0.36881861  0.34245675  0.54872697    -0.56600
C223        C  0.36808187  0.37465375  0.64270441     0.76000
O224        O  0.41920251  0.33035430  0.62589197    -0.57800
C225        C  0.38993595  0.33995907  0.53365003     0.76000
C226        C  0.44761725  0.42342007  0.57942616     0.78400
Cd227      Cd  0.40007365  0.36048408  0.59588070     1.37500
O228        O  0.35386846  0.36240856  0.61784951    -0.56600
O229        O  0.41813222  0.41296546  0.57735704    -0.55400
C230        C  0.39200726  0.30554067  0.62742228     0.78300
O231        O  0.45583409  0.40504988  0.59106808    -0.57800
O232        O  0.39682413  0.38178589  0.64421881    -0.56300
O233        O  0.41468967  0.34574681  0.54778271    -0.56200
O234        O  0.36981608  0.30626806  0.61366526    -0.55400
C235        C  0.32372250  0.37559621  0.78577555     0.19900
C236        C  0.30989301  0.38134012  0.76052370    -0.18200
C237        C  0.32319905  0.38491561  0.73105784    -0.10500
C238        C  0.35094611  0.38342313  0.72669403     0.22100
C239        C  0.36487691  0.37814545  0.75202067    -0.19800
C240        C  0.35139866  0.37410020  0.78117328    -0.10700
C241        C  0.36674793  0.38738496  0.69652411    -0.14800
C242        C  0.35166200  0.37852996  0.66962626    -0.28700
C243        C  0.31039315  0.37346760  0.81700594    -0.03000
C244        C  0.31325218  0.35671147  0.83964881    -0.39500
H245        H  0.28880946  0.38307187  0.76363991     0.13300
H246        H  0.31222920  0.38947649  0.71200548     0.12900
H247        H  0.38635761  0.37705121  0.74923433     0.12300
H248        H  0.36329742  0.37074863  0.80017490     0.12600
H249        H  0.39164817  0.39422966  0.69708150     0.15300
H250        H  0.32650890  0.37029153  0.66832274     0.14100
H251        H  0.29780620  0.38603461  0.82147886     0.13600
H252        H  0.32347821  0.34200596  0.83502690     0.13800
C253        C  0.27600600  0.27491142  0.04847159     0.19900
C254        C  0.30484780  0.28629415  0.06356862    -0.18200
C255        C  0.30521361  0.27956753  0.09451544    -0.10500
C256        C  0.27660360  0.26094780  0.11070894     0.22100
C257        C  0.24784284  0.24816021  0.09508202    -0.19800
C258        C  0.24747327  0.25527541  0.06427757    -0.10700
C259        C  0.27559753  0.25364803  0.14363329    -0.14800
C260        C  0.29853667  0.27153517  0.16357862    -0.28700
C261        C  0.27642969  0.28559688  0.01689566    -0.03000
C262        C  0.25599794  0.29455332  0.00823822    -0.39500
H263        H  0.32710236  0.30130572  0.05164672     0.13300
H264        H  0.32785318  0.28888301  0.10554363     0.12900
H265        H  0.22553137  0.23322005  0.10694866     0.12300
H266        H  0.22494076  0.24569731  0.05291493     0.12600
H267        H  0.25423881  0.23289922  0.15202158     0.15300
H268        H  0.31977676  0.29290367  0.15627204     0.14100
H269        H  0.29691767  0.29122905  0.00236640     0.11800
H270        H  0.23742863  0.29214895  0.02395808     0.13800
C271        C  0.34914709  0.29966017  0.38962613     0.19900
C272        C  0.37796658  0.32430888  0.40040246    -0.18200
C273        C  0.38194374  0.33128901  0.43173328    -0.10500
C274        C  0.35681939  0.31410999  0.45269832     0.22100
C275        C  0.32770905  0.29024732  0.44174055    -0.19800
C276        C  0.32391336  0.28293958  0.41058973    -0.10700
C277        C  0.35971829  0.32150432  0.48586305    -0.14800
C278        C  0.38684479  0.33156775  0.50093520    -0.28700
C279        C  0.34512876  0.29237496  0.35638984    -0.03000
C280        C  0.32692670  0.26275148  0.34641451    -0.39500
H281        H  0.39748141  0.33794426  0.38460121     0.13300
H282        H  0.40439594  0.35052635  0.43940431     0.12900
H283        H  0.30787735  0.27710754  0.45737541     0.12300
H284        H  0.30097961  0.26458422  0.40287699     0.12600
H285        H  0.33859283  0.31741835  0.49845151     0.15300
H286        H  0.40752401  0.33368661  0.48902760     0.14100
H287        H  0.35657569  0.31162468  0.34006269     0.11800
H288        H  0.31643272  0.24356168  0.36286319     0.13800
C289        C  0.60657559  0.95045087  0.78456114     0.19900
C290        C  0.61662861  0.98149711  0.77612186    -0.18200
C291        C  0.61516887  0.98896251  0.74560340    -0.10500
C292        C  0.60402022  0.96546039  0.72290683     0.22100
C293        C  0.59466403  0.93457130  0.73128001    -0.19800
C294        C  0.59576318  0.92705360  0.76181144    -0.10700
C295        C  0.60450087  0.97302323  0.69008272    -0.14800
C296        C  0.60118100  0.99697650  0.68061797    -0.28700
C297        C  0.60833915  0.94295611  0.81699384    -0.03000
C298        C  0.58662266  0.91539094  0.82936662    -0.39500
H299        H  0.62551968  0.99995361  0.79318675     0.13300
H300        H  0.62370448  0.01327339  0.73975075     0.12900
H301        H  0.58664968  0.91625022  0.71411220     0.12300
H302        H  0.58884000  0.90305154  0.76744472     0.12600
H303        H  0.60842652  0.95889815  0.67331263     0.15300
H304        H  0.59558082  0.01019118  0.69700878     0.14100
H305        H  0.62722170  0.96054485  0.83101218     0.11800
H306        H  0.56660385  0.89872647  0.81586525     0.13800
C307        C  0.66393110  0.03822869  0.44447178     0.19900
C308        C  0.68220788  0.06479129  0.42602120    -0.18200
C309        C  0.68642067  0.06155777  0.39477302    -0.10500
C310        C  0.67207442  0.03159471  0.38127296     0.22100
C311        C  0.65293677  0.00507488  0.39948036    -0.19800
C312        C  0.64900042  0.00828042  0.43084324    -0.10700
C313        C  0.67697921  0.02728772  0.34841104    -0.14800
C314        C  0.70465376  0.04586591  0.33376119    -0.28700
C315        C  0.65935818  0.04291390  0.47731795    -0.03000
C316        C  0.65180827  0.02099040  0.49916637    -0.39500
H317        H  0.69338717  0.08814971  0.43586359     0.13300
H318        H  0.70059959  0.08253468  0.38118112     0.12900
H319        H  0.64136537  0.98178097  0.38947938     0.12300
H320        H  0.63379995  0.98736950  0.44412744     0.12600
H321        H  0.65878665  0.00641599  0.33695415     0.15300
H322        H  0.72424565  0.06481586  0.34595494     0.14100
H323        H  0.66252160  0.06565474  0.48376860     0.11800
H324        H  0.64994741  0.99862062  0.49372025     0.13800
C325        C  0.68436361  0.96593135  0.10642827     0.19900
C326        C  0.69282577  0.94674665  0.08976821    -0.18200
C327        C  0.68346304  0.93865511  0.05941716    -0.10500
C328        C  0.66584270  0.95008355  0.04497247     0.22100
C329        C  0.65836315  0.97018729  0.06123307    -0.19800
C330        C  0.66731789  0.97791015  0.09174401    -0.10700
C331        C  0.65471104  0.94133793  0.01310938    -0.14800
C332        C  0.64511676  0.91256940  0.00168517    -0.28700
C333        C  0.69531357  0.97427080  0.13840559    -0.03000
C334        C  0.68134397  0.98330604  0.15976989    -0.39500
H335        H  0.70654132  0.93778236  0.10036869     0.13300
H336        H  0.69030557  0.92377099  0.04720811     0.12900
H337        H  0.64511306  0.97955868  0.05041854     0.12300
H338        H  0.66135380  0.99366428  0.10348306     0.12600
H339        H  0.65089975  0.95772068  0.99992145     0.15300
H340        H  0.64580674  0.89486645  0.01576327     0.14100
H341        H  0.71581988  0.97258792  0.14466961     0.11800
H342        H  0.66011208  0.98405262  0.15464005     0.13800
C343        C  0.50158049  0.92975793  0.98980450     0.19900
C344        C  0.51313048  0.96186681  0.99514109    -0.18200
C345        C  0.49515416  0.97193011  0.01156011    -0.10500
C346        C  0.46500268  0.95000018  0.02336317     0.22100
C347        C  0.45337400  0.91782593  0.01805739    -0.19800
C348        C  0.47141865  0.90772394  0.00153621    -0.10700
C349        C  0.44418123  0.95960440  0.03960716    -0.14800
C350        C  0.45365491  0.98902174  0.04952829    -0.28700
C351        C  0.52241763  0.92103156  0.97234603    -0.03000
C352        C  0.51508180  0.89174807  0.96376375    -0.39500
H353        H  0.53623935  0.97943789  0.98633826     0.13300
H354        H  0.50493945  0.99693545  0.01424386     0.12900
H355        H  0.43011895  0.90038176  0.02664937     0.12300
H356        H  0.46158164  0.88277779  0.99817685     0.12600
H357        H  0.41941395  0.94157856  0.04272255     0.15300
H358        H  0.47818948  0.00763760  0.04753412     0.14100
H359        H  0.54589705  0.94043287  0.96641174     0.11800
H360        H  0.49209226  0.87143084  0.96895935     0.13800
C361        C  0.34837508  0.11072863  0.14743236     0.19900
C362        C  0.32010711  0.09834823  0.16475937    -0.18200
C363        C  0.31343406  0.11777473  0.18295348    -0.10500
C364        C  0.33488977  0.15036123  0.18406341     0.22100
C365        C  0.36315983  0.16276646  0.16656379    -0.19800
C366        C  0.36990229  0.14324033  0.14844139    -0.10700
C367        C  0.32887162  0.17243240  0.20260514    -0.14800
C368        C  0.30204241  0.16446076  0.21883293    -0.28700
C369        C  0.35364333  0.08868264  0.12832020    -0.03000
C370        C  0.38191939  0.09415762  0.11716511    -0.39500
H371        H  0.30305599  0.07335707  0.16436443     0.13300
H372        H  0.29145321  0.10689938  0.19594538     0.12900
H373        H  0.38008010  0.18778606  0.16674007     0.12300
H374        H  0.39163298  0.15378283  0.13496793     0.12600
H375        H  0.34738468  0.19706034  0.20198667     0.15300
H376        H  0.28246892  0.14045448  0.21963309     0.14100
H377        H  0.33291461  0.06560153  0.12475272     0.11800
H378        H  0.40354931  0.11620733  0.12145008     0.13800
C379        C  0.35494884  0.98265666  0.22432286     0.19900
C380        C  0.37650035  0.98585989  0.24675944    -0.18200
C381        C  0.36698800  0.97975464  0.27738919    -0.10500
C382        C  0.33575630  0.97069111  0.28620668     0.22100
C383        C  0.31469101  0.96945561  0.26410383    -0.19800
C384        C  0.32411671  0.97515368  0.23324914    -0.10700
C385        C  0.32450024  0.96079392  0.31803002    -0.14800
C386        C  0.33330971  0.94306814  0.33340019    -0.28700
C387        C  0.36612848  0.98883075  0.19212033    -0.03000
C388        C  0.34731618  0.97509590  0.16797832    -0.39500
H389        H  0.40060528  0.99242456  0.24046261     0.13300
H390        H  0.38398356  0.98180177  0.29415868     0.12900
H391        H  0.29066114  0.96300572  0.27056665     0.12300
H392        H  0.30739539  0.97380218  0.21653067     0.12600
H393        H  0.30662090  0.96536527  0.32775839     0.15300
H394        H  0.34865365  0.93581259  0.32234852     0.14100
H395        H  0.39128112  0.00515348  0.18823751     0.11800
H396        H  0.32232043  0.95797715  0.17124485     0.13800
C397        C  0.42916641  0.95055359  0.49180530     0.19900
C398        C  0.45007722  0.98274228  0.49698534    -0.18200
C399        C  0.47716347  0.99303889  0.51455810    -0.10500
C400        C  0.48407011  0.97129573  0.52768078     0.22100
C401        C  0.46315502  0.93903532  0.52261045    -0.19800
C402        C  0.43593505  0.92868744  0.50497084    -0.10700
C403        C  0.51376333  0.98126251  0.54486813    -0.14800
C404        C  0.53303895  0.01058278  0.55570267    -0.28700
C405        C  0.40056256  0.94157735  0.47314939    -0.03000
C406        C  0.37843030  0.91215917  0.46469808    -0.39500
H407        H  0.44558141  0.00019615  0.48714773     0.13300
H408        H  0.49284820  0.01807887  0.51703220     0.12900
H409        H  0.46797705  0.92172501  0.53223939     0.12300
H410        H  0.42047338  0.90369161  0.50185317     0.12600
H411        H  0.52050029  0.96358476  0.54802579     0.15300
H412        H  0.52680034  0.02868244  0.55392512     0.14100
H413        H  0.39728594  0.96088481  0.46629974     0.11800
H414        H  0.38046999  0.89196000  0.47059598     0.13800
C415        C  0.34774582  0.22206664  0.66423711     0.19900
C416        C  0.31547868  0.19868026  0.66601352    -0.18200
C417        C  0.30558022  0.17000050  0.68080911    -0.10500
C418        C  0.32780048  0.16391019  0.69432792     0.22100
C419        C  0.36006100  0.18720097  0.69257951    -0.19800
C420        C  0.36998213  0.21599491  0.67789135    -0.10700
C421        C  0.31858141  0.13295744  0.70856399    -0.14800
C422        C  0.28929399  0.11244889  0.71968468    -0.28700
C423        C  0.35665297  0.25177744  0.64733768    -0.03000
C424        C  0.38617134  0.27714944  0.64459691    -0.39500
H425        H  0.29774811  0.20245286  0.65555730     0.13300
H426        H  0.28063206  0.15241969  0.68080194     0.12900
H427        H  0.37774692  0.18303154  0.70252153     0.12300
H428        H  0.39505249  0.23300829  0.67704034     0.12600
H429        H  0.33699975  0.12687728  0.71005949     0.15300
H430        H  0.27077910  0.11841240  0.71987750     0.14100
H431        H  0.33736203  0.25280335  0.63648709     0.11800
H432        H  0.40623390  0.27769046  0.65532241     0.13800
C433        C  0.27919158  0.95885698  0.54991962     0.19900
C434        C  0.27210726  0.98174566  0.55954121    -0.18200
C435        C  0.27297552  0.98902431  0.59058068    -0.10500
C436        C  0.28155558  0.97386157  0.61237326     0.22100
C437        C  0.28953291  0.95161556  0.60260327    -0.19800
C438        C  0.28806625  0.94390618  0.57163857    -0.10700
C439        C  0.28301075  0.98150771  0.64527567    -0.14800
C440        C  0.26209593  0.98812088  0.65833384    -0.28700
C441        C  0.27912354  0.95199781  0.51700524    -0.03000
C442        C  0.26804343  0.92252180  0.50722277    -0.39500
H443        H  0.26575389  0.99384707  0.54304401     0.13300
H444        H  0.26758616  0.00697526  0.59741483     0.12900
H445        H  0.29661167  0.94001446  0.61897967     0.12300
H446        H  0.29455320  0.92678052  0.56458219     0.12600
H447        H  0.30084986  0.98071341  0.65911259     0.15300
H448        H  0.24300060  0.98688771  0.64492154     0.14100
H449        H  0.28943320  0.97150423  0.50089469     0.11800
H450        H  0.25670120  0.90312101  0.52341219     0.13800
C451        C  0.34279851  0.02116116  0.87096621     0.19900
C452        C  0.32887471  0.99344683  0.88839241    -0.18200
C453        C  0.33500053  0.99441451  0.91963498    -0.10500
C454        C  0.35548305  0.02324916  0.93390337     0.22100
C455        C  0.37029079  0.05077231  0.91611125    -0.19800
C456        C  0.36399553  0.04981069  0.88496675    -0.10700
C457        C  0.36348423  0.02567308  0.96676308    -0.14800
C458        C  0.34654859  0.00346072  0.98797482    -0.28700
C459        C  0.33325500  0.01966640  0.83878791    -0.03000
C460        C  0.32893785  0.04215204  0.82676006    -0.39500
H461        H  0.31258524  0.97108847  0.87796009     0.13300
H462        H  0.32392501  0.97253297  0.93225690     0.12900
H463        H  0.38663414  0.07318876  0.92641191     0.12300
H464        H  0.37565632  0.07147046  0.87191039     0.12600
H465        H  0.38466024  0.04709116  0.97382661     0.15300
H466        H  0.32473016  0.98218545  0.98220189     0.14100
H467        H  0.32470523  0.99760161  0.82655472     0.11800
H468        H  0.33412749  0.06283033  0.84012746     0.13800
C469        C  0.99433364  0.59786398  0.71735716     0.19900
C470        C  0.97443135  0.58702168  0.74339143    -0.18200
C471        C  0.98539816  0.60086386  0.77191343    -0.10500
C472        C  0.01671793  0.62571557  0.77502991     0.22100
C473        C  0.03699060  0.63596898  0.74921844    -0.19800
C474        C  0.02588747  0.62235069  0.72052810    -0.10700
C475        C  0.02927538  0.64019972  0.80517104    -0.14800
C476        C  0.01117079  0.64225938  0.82759005    -0.28700
C477        C  0.98100932  0.58277639  0.68756975    -0.03000
C478        C  0.99165929  0.59705582  0.66022118    -0.39500
H479        H  0.95014127  0.56791787  0.74160501     0.13300
H480        H  0.96948872  0.59164916  0.79154048     0.12900
H481        H  0.06141392  0.65470873  0.75124358     0.12300
H482        H  0.04213327  0.63071780  0.70111476     0.12600
H483        H  0.05452540  0.65019085  0.80873865     0.15300
H484        H  0.98638344  0.63440590  0.82378779     0.14100
H485        H  0.95951477  0.55982206  0.68844552     0.11800
H486        H  0.01194844  0.62070276  0.65860703     0.13800
C487        C  0.17498468  0.88284453  0.82207234     0.19900
C488        C  0.18513162  0.86109317  0.82653102    -0.18200
C489        C  0.16603351  0.83275696  0.84212495    -0.10500
C490        C  0.13609025  0.82534718  0.85388832     0.22100
C491        C  0.12584020  0.84702688  0.84940854    -0.19800
C492        C  0.14501219  0.87547299  0.83380531    -0.10700
C493        C  0.11416145  0.79474939  0.86938196    -0.14800
C494        C  0.12282216  0.77470958  0.88050707    -0.28700
C495        C  0.19654766  0.91233744  0.80470239    -0.03000
C496        C  0.19155131  0.93647655  0.79925472    -0.39500
H497        H  0.20797565  0.86590162  0.81762417     0.13300
H498        H  0.17467333  0.81657337  0.84418407     0.12900
H499        H  0.10276102  0.84186999  0.85793259     0.12300
H500        H  0.13601387  0.89125961  0.83084572     0.12600
H501        H  0.08943577  0.78835612  0.87158899     0.15300
H502        H  0.14738233  0.78060215  0.87966909     0.14100
H503        H  0.21847340  0.91437386  0.79600113     0.11800
H504        H  0.17040823  0.93607349  0.80774852     0.13800
C505        C  0.02373245  0.71018191  0.05546696     0.19900
C506        C  0.03195714  0.69859370  0.08077527    -0.18200
C507        C  0.02284678  0.70195001  0.11034397    -0.10500
C508        C  0.00545283  0.71721651  0.11513552     0.22100
C509        C  0.99804945  0.72965380  0.08990476    -0.19800
C510        C  0.00690706  0.72601647  0.06025657    -0.10700
C511        C  0.99535882  0.72129271  0.14611608    -0.14800
C512        C  0.98995126  0.70149544  0.16950139    -0.28700
C513        C  0.03430717  0.70634488  0.02467301    -0.03000
C514        C  0.01916271  0.70468627  0.99867904    -0.39500
H515        H  0.04538775  0.68676694  0.07763261     0.13300
H516        H  0.02995484  0.69306369  0.12933286     0.12900
H517        H  0.98514376  0.74199960  0.09313636     0.12300
H518        H  0.00108351  0.73608914  0.04129856     0.12600
H519        H  0.99077141  0.74052166  0.14936889     0.15300
H520        H  0.99261618  0.68109838  0.16642817     0.14100
H521        H  0.05454321  0.70284856  0.02361255     0.11800
H522        H  0.99756948  0.70581346  0.99915434     0.13800
C523        C  0.94106446  0.62628505  0.44994763     0.19900
C524        C  0.94295080  0.65499128  0.44361517    -0.18200
C525        C  0.94307452  0.66411559  0.41336515    -0.10500
C526        C  0.94158246  0.64467999  0.38884906     0.22100
C527        C  0.94040294  0.61630378  0.39527062    -0.19800
C528        C  0.93997813  0.60707165  0.42549125    -0.10700
C529        C  0.94325772  0.65409304  0.35638838    -0.14800
C530        C  0.93511661  0.67491174  0.34717243    -0.28700
C531        C  0.94184008  0.61745728  0.48209787    -0.03000
C532        C  0.92582278  0.58742199  0.49147745    -0.39500
H533        H  0.94435838  0.67037912  0.46212056     0.13300
H534        H  0.94526396  0.68675398  0.40940316     0.12900
H535        H  0.93992886  0.60127036  0.37682060     0.12300
H536        H  0.93959835  0.58526811  0.42964526     0.12600
H537        H  0.95189321  0.64376072  0.33952269     0.15300
H538        H  0.92558176  0.68489410  0.36337342     0.14100
H539        H  0.95525183  0.63604827  0.49849237     0.11800
H540        H  0.91041991  0.56900677  0.47575395     0.13800
C541        C  0.15618228  0.82816976  0.35144032     0.19900
C542        C  0.13535255  0.83979951  0.34897596    -0.18200
C543        C  0.10824290  0.82443852  0.33097898    -0.10500
C544        C  0.10142409  0.79706296  0.31466369     0.22100
C545        C  0.12260054  0.78573569  0.31677435    -0.19800
C546        C  0.14965302  0.80104718  0.33488768    -0.10700
C547        C  0.07176839  0.77834199  0.29685293    -0.14800
C548        C  0.04976873  0.78661347  0.29145138    -0.28700
C549        C  0.18533401  0.84629128  0.36984694    -0.03000
C550        C  0.20346584  0.83500315  0.38039078    -0.39500
H551        H  0.13996724  0.86084445  0.36124438     0.13300
H552        H  0.09266081  0.83397153  0.33044479     0.12900
H553        H  0.11810385  0.76475899  0.30445073     0.12300
H554        H  0.16553524  0.79182493  0.33539130     0.12600
H555        H  0.06715134  0.75551912  0.28877192     0.15300
H556        H  0.05345234  0.80935633  0.29832035     0.14100
H557        H  0.19237174  0.87059901  0.37473600     0.11800
H558        H  0.19667623  0.81058313  0.37706234     0.13800
C559        C  0.01567861  0.44368245  0.47790137     0.19900
C560        C  0.98515783  0.42921090  0.49132210    -0.18200
C561        C  0.97511583  0.44651754  0.50892051    -0.10500
C562        C  0.99547009  0.47896159  0.51353261     0.22100
C563        C  0.02610613  0.49333422  0.50034378    -0.19800
C564        C  0.03614448  0.47601980  0.48275822    -0.10700
C565        C  0.98556944  0.49921156  0.53032435    -0.14800
C566        C  0.95807239  0.48883540  0.54623638    -0.28700
C567        C  0.02445361  0.42422689  0.45834860    -0.03000
C568        C  0.05407327  0.43289468  0.44828518    -0.39500
H569        H  0.96879137  0.40434793  0.48792245     0.13300
H570        H  0.95121883  0.43435207  0.51816247     0.12900
H571        H  0.04229575  0.51830392  0.50326831     0.12300
H572        H  0.05963241  0.48834267  0.47254763     0.12600
H573        H  0.00179810  0.52444388  0.52887317     0.15300
H574        H  0.94121374  0.46394189  0.54870749     0.14100
H575        H  0.00529424  0.40079378  0.45268606     0.11800
H576        H  0.07422918  0.45540156  0.45446070     0.13800
C577        C  0.19849786  0.29238135  0.31223929     0.19900
C578        C  0.21142522  0.32254045  0.32516186    -0.18200
C579        C  0.19209009  0.33192233  0.34026070    -0.10500
C580        C  0.15915155  0.31126556  0.34262903     0.22100
C581        C  0.14625510  0.28116473  0.32958923    -0.19800
C582        C  0.16556742  0.27180167  0.31451194    -0.10700
C583        C  0.13699089  0.31967831  0.35796060    -0.14800
C584        C  0.14481683  0.34804449  0.36982496    -0.28700
C585        C  0.22034076  0.28376854  0.29657888    -0.03000
C586        C  0.21285072  0.25430448  0.28858226    -0.39500
H587        H  0.23672220  0.33894218  0.32372679     0.13300
H588        H  0.20321010  0.35525659  0.34994875     0.12900
H589        H  0.12094971  0.26476407  0.33086839     0.12300
H590        H  0.15439527  0.24862126  0.30445179     0.12600
H591        H  0.11218879  0.30123564  0.35878963     0.15300
H592        H  0.16904445  0.36747982  0.36934351     0.14100
H593        H  0.24456221  0.30278031  0.29269332     0.11800
H594        H  0.18939464  0.23436589  0.29301625     0.13800
C595        C  0.13747163  0.30558442  0.87601446     0.19900
C596        C  0.11892422  0.27547610  0.86325253    -0.18200
C597        C  0.09204492  0.26790151  0.84607321    -0.10500
C598        C  0.08291936  0.29037957  0.84124326     0.22100
C599        C  0.10074272  0.32007085  0.85504241    -0.19800
C600        C  0.12763023  0.32765448  0.87218707    -0.10700
C601        C  0.05641273  0.28495552  0.82075936    -0.14800
C602        C  0.03621515  0.25757770  0.80675719    -0.28700
C603        C  0.16760977  0.31309519  0.89132440    -0.03000
C604        C  0.18852905  0.34109690  0.90380310    -0.39500
H605        H  0.12575138  0.25787891  0.86586400     0.13300
H606        H  0.07924595  0.24475155  0.83603008     0.12900
H607        H  0.09427831  0.33787603  0.85193009     0.12300
H608        H  0.14081426  0.35105701  0.88160058     0.12600
H609        H  0.05378643  0.30520286  0.81647296     0.15300
H610        H  0.03709252  0.23640306  0.81085853     0.14100
H611        H  0.17361236  0.29466857  0.89102344     0.11800
H612        H  0.18377877  0.36027049  0.90491067     0.13800
C613        C  0.03647277  0.31267003  0.54234009     0.19900
C614        C  0.05736854  0.31950640  0.56662512    -0.18200
C615        C  0.04646664  0.31548962  0.59691998    -0.10500
C616        C  0.01433822  0.30463865  0.60355985     0.22100
C617        C  0.99350086  0.29841892  0.57935663    -0.19800
C618        C  0.00437251  0.30223839  0.54898514    -0.10700
C619        C  0.00197730  0.29936206  0.63548705    -0.14800
C620        C  0.01362958  0.28910627  0.65726333    -0.28700
C621        C  0.04981473  0.32022654  0.51077502    -0.03000
C622        C  0.03246989  0.30912597  0.48530903    -0.39500
H623        H  0.08233894  0.32834754  0.56213842     0.13300
H624        H  0.06333845  0.32141454  0.61509107     0.12900
H625        H  0.96871272  0.29037869  0.58397138     0.12300
H626        H  0.98776014  0.29791481  0.53097236     0.12600
H627        H  0.98097376  0.30094422  0.64048243     0.15300
H628        H  0.03255900  0.28440468  0.65169159     0.14100
H629        H  0.07495103  0.33745192  0.50851779     0.11800
H630        H  0.00758041  0.29117172  0.48663205     0.13800
C631        C  0.76833115  0.12521662  0.64814913     0.19900
C632        C  0.78917565  0.11439499  0.65510991    -0.18200
C633        C  0.81870800  0.13440878  0.66816899    -0.10500
C634        C  0.82802795  0.16582856  0.67483756     0.22100
C635        C  0.80730920  0.17671583  0.66769155    -0.19800
C636        C  0.77776046  0.15670022  0.65471453    -0.10700
C637        C  0.85913022  0.18832357  0.68867011    -0.14800
C638        C  0.87773999  0.18022481  0.70397264    -0.28700
C639        C  0.73694676  0.10255072  0.63481414    -0.03000
C640        C  0.71650494  0.11016389  0.62254346    -0.39500
H641        H  0.78263527  0.09028611  0.65029021     0.13300
H642        H  0.83416632  0.12520950  0.67260154     0.12900
H643        H  0.81386396  0.20082756  0.67252647     0.12300
H644        H  0.76243205  0.16603963  0.65033429     0.12600
H645        H  0.86652216  0.21310563  0.68710142     0.15300
H646        H  0.87087225  0.15576249  0.70692052     0.14100
H647        H  0.73040235  0.07794296  0.63497126     0.11800
H648        H  0.72200405  0.13435581  0.62149561     0.13800
C649        C  0.93835981  0.32746408  0.92513838     0.19900
C650        C  0.91188080  0.31392581  0.90609380    -0.18200
C651        C  0.91560160  0.31189432  0.87451141    -0.10500
C652        C  0.94601133  0.32368983  0.86140576     0.22100
C653        C  0.97257605  0.33905673  0.88017132    -0.19800
C654        C  0.96884895  0.34083798  0.91176958    -0.10700
C655        C  0.95081771  0.31782778  0.82899100    -0.14800
C656        C  0.93090512  0.29045275  0.81537824    -0.28700
C657        C  0.93338843  0.32820353  0.95865079    -0.03000
C658        C  0.95402415  0.32955623  0.97947069    -0.39500
H659        H  0.88820078  0.30418536  0.91578018     0.13300
H660        H  0.89468620  0.30067413  0.86048769     0.12900
H661        H  0.99625126  0.34861157  0.87052170     0.12300
H662        H  0.98986936  0.35268873  0.92557011     0.12600
H663        H  0.97379482  0.33333714  0.81829892     0.15300
H664        H  0.90927207  0.27334954  0.82714840     0.14100
H665        H  0.91174174  0.32736306  0.96644734     0.11800
H666        H  0.97530376  0.32940975  0.97232205     0.13800
C667        C  0.03048468  0.36127938  0.19272716     0.19900
C668        C  0.02000742  0.33472044  0.21139984    -0.18200
C669        C  0.02733166  0.33810822  0.24248550    -0.10500
C670        C  0.04565355  0.36822806  0.25529625     0.22100
C671        C  0.05792451  0.39466070  0.23610702    -0.19800
C672        C  0.05025399  0.39128407  0.20511811    -0.10700
C673        C  0.05324447  0.37290213  0.28828461    -0.14800
C674        C  0.03476422  0.35243836  0.31018669    -0.28700
C675        C  0.01825752  0.35713299  0.16125092    -0.03000
C676        C  0.00864599  0.37620207  0.15016611    -0.39500
H677        H  0.00504772  0.31136472  0.20219453     0.13300
H678        H  0.01861923  0.31713954  0.25632656     0.12900
H679        H  0.07276104  0.41804351  0.24530539     0.12300
H680        H  0.05931311  0.41212726  0.19098235     0.12600
H681        H  0.07477514  0.39426064  0.29478062     0.15300
H682        H  0.01262686  0.33146021  0.30444257     0.14100
H683        H  0.01225880  0.33550459  0.14917711     0.11800
H684        H  0.01162834  0.39607983  0.16368206     0.13800
C685        C  0.81372990  0.15640579  0.17861436     0.19900
C686        C  0.80099132  0.17096071  0.16085949    -0.18200
C687        C  0.82074411  0.19914545  0.14516914    -0.10500
C688        C  0.85387830  0.21360709  0.14702240     0.22100
C689        C  0.86662715  0.19923357  0.16496308    -0.19800
C690        C  0.84689651  0.17112320  0.18072874    -0.10700
C691        C  0.87610050  0.24273406  0.12967367    -0.14800
C692        C  0.86897193  0.26403358  0.11895471    -0.28700
C693        C  0.79142824  0.12628958  0.19466486    -0.03000
C694        C  0.79947371  0.10629553  0.20711804    -0.39500
H695        H  0.77554783  0.16024182  0.15878105     0.13300
H696        H  0.80995796  0.20905910  0.13113665     0.12900
H697        H  0.89208208  0.20987813  0.16686387     0.12300
H698        H  0.85784200  0.16129490  0.19461481     0.12600
H699        H  0.90021866  0.24743648  0.12653204     0.15300
H700        H  0.84575492  0.26122668  0.12315992     0.14100
H701        H  0.76660223  0.11974235  0.19538444     0.11800
H702        H  0.82372792  0.11124742  0.20604565     0.13800
C703        C  0.99411037  0.49182917  0.01901631     0.19900
C704        C  0.02520668  0.51190765  0.00801633    -0.18200
C705        C  0.03361238  0.54044468  0.99359391    -0.10500
C706        C  0.01093220  0.54960864  0.98971925     0.22100
C707        C  0.98000465  0.52978599  0.00123158    -0.19800
C708        C  0.97160201  0.50126773  0.01560884    -0.10700
C709        C  0.01765640  0.57888622  0.97329527    -0.14800
C710        C  0.04561117  0.60023395  0.96017054    -0.28700
C711        C  0.98631497  0.46098111  0.03260861    -0.03000
C712        C  0.95844985  0.44005563  0.04617730    -0.39500
H713        H  0.04311223  0.50532300  0.01028610     0.13300
H714        H  0.05772285  0.55483137  0.98531809     0.12900
H715        H  0.96197211  0.53615667  0.99866593     0.12300
H716        H  0.94734194  0.48665839  0.02337972     0.12600
H717        H  0.99786332  0.58295773  0.97168357     0.15300
H718        H  0.06641299  0.59790094  0.96155261     0.14100
H719        H  0.00482679  0.45497785  0.03091828     0.11800
H720        H  0.93927775  0.44489927  0.04885207     0.13800
C721        C  0.75318784  0.62595786  0.16988549     0.19900
C722        C  0.77165852  0.65798386  0.17754955    -0.18200
C723        C  0.80062088  0.66972537  0.19250393    -0.10500
C724        C  0.81208566  0.64965524  0.20020360     0.22100
C725        C  0.79346255  0.61753799  0.19276059    -0.19800
C726        C  0.76444264  0.60578252  0.17780319    -0.10700
C727        C  0.84337403  0.66088668  0.21521387    -0.14800
C728        C  0.86439721  0.69099709  0.22302050    -0.28700
C729        C  0.72333433  0.61544304  0.15254116    -0.03000
C730        C  0.70102810  0.58534180  0.14621695    -0.39500
H731        H  0.76374701  0.67419697  0.17170382     0.13300
H732        H  0.81382106  0.69454335  0.19761487     0.12900
H733        H  0.80159119  0.60141438  0.19823317     0.12300
H734        H  0.75139096  0.58108430  0.17207068     0.12600
H735        H  0.84980720  0.64314754  0.21944978     0.15300
H736        H  0.85932439  0.70966987  0.21922923     0.14100
H737        H  0.71957397  0.63404424  0.14432911     0.11800
H738        H  0.70307630  0.56581767  0.15456630     0.13800
C739        C  0.41951172  0.44586499  0.99934083     0.19900
C740        C  0.43900101  0.43354574  0.00667759    -0.18200
C741        C  0.46794065  0.45193404  0.02133412    -0.10500
C742        C  0.47822261  0.48333513  0.02907209     0.22100
C743        C  0.45876477  0.49570867  0.02170639    -0.19800
C744        C  0.42975471  0.47727516  0.00706888    -0.10700
C745        C  0.50941120  0.50454032  0.04354577    -0.14800
C746        C  0.52895138  0.49557843  0.05557256    -0.28700
C747        C  0.38946709  0.42511609  0.98284925    -0.03000
C748        C  0.36598388  0.43128738  0.97747078    -0.39500
H749        H  0.43190000  0.40949783  0.00082761     0.13300
H750        H  0.48224276  0.44148369  0.02594416     0.12900
H751        H  0.46615648  0.51991961  0.02711561     0.12300
H752        H  0.41587738  0.48796312  0.00149530     0.12600
H753        H  0.51666400  0.52932406  0.04440354     0.15300
H754        H  0.52250262  0.47108492  0.05617809     0.14100
H755        H  0.38628868  0.40273018  0.97503650     0.11800
H756        H  0.36735149  0.45275513  0.98557853     0.13800
C757        C  0.67635157  0.88235622  0.31964872     0.19900
C758        C  0.64533927  0.86460619  0.33172168    -0.18200
C759        C  0.63539389  0.83639527  0.34742172    -0.10500
C760        C  0.65634519  0.82509686  0.35147815     0.22100
C761        C  0.68744872  0.84297080  0.33960473    -0.19800
C762        C  0.69740195  0.87121269  0.32388534    -0.10700
C763        C  0.64707532  0.79480011  0.36728380    -0.14800
C764        C  0.61807731  0.77452187  0.37924986    -0.28700
C765        C  0.68498162  0.91179475  0.30251452    -0.03000
C766        C  0.71401495  0.93269255  0.29102740    -0.39500
H767        H  0.62853603  0.87254009  0.32887659     0.13300
H768        H  0.61128215  0.82370393  0.35606203     0.12900
H769        H  0.70417259  0.83491554  0.34228862     0.12300
H770        H  0.72141265  0.88383670  0.31494214     0.12600
H771        H  0.66535303  0.78850336  0.36855479     0.15300
H772        H  0.59884837  0.77937068  0.37847347     0.14100
H773        H  0.66589991  0.91671010  0.29943242     0.11800
H774        H  0.73414105  0.92948395  0.29396966     0.13800
C775        C  0.59835879  0.64239020  0.20401510     0.19900
C776        C  0.62509848  0.66063462  0.22188508    -0.18200
C777        C  0.62161352  0.66544685  0.25290061    -0.10500
C778        C  0.59121191  0.65239104  0.26636787     0.22100
C779        C  0.56448617  0.63605751  0.24794968    -0.19800
C780        C  0.56797467  0.63079218  0.21704324    -0.10700
C781        C  0.58665507  0.65592018  0.29938632    -0.14800
C782        C  0.60692636  0.65751762  0.32070339    -0.28700
C783        C  0.60292219  0.63350801  0.17280331    -0.03000
C784        C  0.58525385  0.60380335  0.16299942    -0.39500
H785        H  0.64871677  0.66999956  0.21215468     0.13300
H786        H  0.64268434  0.67923875  0.26627393     0.12900
H787        H  0.54086607  0.62645174  0.25774517     0.12300
H788        H  0.54698269  0.61718828  0.20349134     0.12600
H789        H  0.56552510  0.65650490  0.30639573     0.15300
H790        H  0.62748878  0.65573277  0.31422716     0.14100
H791        H  0.62430902  0.64976469  0.16009223     0.11800
H792        H  0.56580364  0.58655114  0.17719603     0.13800
C793        C  0.48185271  0.50231976  0.53556713     0.19900
C794        C  0.46752286  0.51787688  0.52229707    -0.18200
C795        C  0.48475726  0.54384313  0.50296408    -0.10500
C796        C  0.51698482  0.55503258  0.49645775     0.22100
C797        C  0.53148283  0.53986504  0.51017484    -0.19800
C798        C  0.51425314  0.51389554  0.52951330    -0.10700
C799        C  0.53627744  0.58156860  0.47487367    -0.14800
C800        C  0.52803548  0.60208383  0.46420920    -0.28700
C801        C  0.46132835  0.47300117  0.55348282    -0.03000
C802        C  0.47104824  0.45497239  0.56735716    -0.39500
H803        H  0.44256315  0.50944055  0.52632976     0.13300
H804        H  0.47242210  0.55438653  0.49265545     0.12900
H805        H  0.55628503  0.54792797  0.50560911     0.12300
H806        H  0.52640257  0.50276378  0.53894086     0.12600
H807        H  0.55934489  0.58502999  0.46816562     0.15300
H808        H  0.50600729  0.60062703  0.47137504     0.14100
H809        H  0.43609205  0.46482419  0.55378363     0.11800
H810        H  0.49590747  0.46206548  0.56816369     0.13800
C811        C  0.68081977  0.69906163  0.60585481     0.19900
C812        C  0.70192541  0.71110385  0.58074903    -0.18200
C813        C  0.69155514  0.71485951  0.55233293    -0.10500
C814        C  0.65987767  0.70696339  0.54873215     0.22100
C815        C  0.63905781  0.69588884  0.57409148    -0.19800
C816        C  0.64931855  0.69177384  0.60237056    -0.10700
C817        C  0.64735103  0.70942376  0.51896862    -0.14800
C818        C  0.65843320  0.70564596  0.49183999    -0.28700
C819        C  0.69288782  0.69613878  0.63573105    -0.03000
C820        C  0.67468769  0.67508483  0.65734808    -0.39500
H821        H  0.72647075  0.71743700  0.58310568     0.13300
H822        H  0.70841495  0.72425089  0.53343713     0.12900
H823        H  0.61461389  0.68997241  0.57190266     0.12300
H824        H  0.63272675  0.68347909  0.62152411     0.12600
H825        H  0.62583879  0.71077739  0.51960479     0.15300
H826        H  0.67864374  0.70219616  0.49061375     0.14100
H827        H  0.71803245  0.71161095  0.63979935     0.11800
H828        H  0.64995926  0.65808948  0.65315934     0.13800
C829        C  0.68097895  0.62536315  0.88670926     0.19900
C830        C  0.70222477  0.62897259  0.90971681    -0.18200
C831        C  0.69234583  0.62338471  0.94034242    -0.10500
C832        C  0.66097442  0.61433129  0.94861111     0.22100
C833        C  0.63979991  0.61120680  0.92572785    -0.19800
C834        C  0.64960382  0.61648234  0.89498591    -0.10700
C835        C  0.65000454  0.60865162  0.98097271    -0.14800
C836        C  0.66098030  0.59621393  0.00118809    -0.28700
C837        C  0.69340093  0.63430816  0.85496903    -0.03000
C838        C  0.67535494  0.62480350  0.82982755    -0.39500
H839        H  0.72669695  0.63650296  0.90399464     0.13300
H840        H  0.70949757  0.62690709  0.95755554     0.12900
H841        H  0.61561595  0.60462774  0.93166792     0.12300
H842        H  0.63287887  0.61458106  0.87801520     0.12600
H843        H  0.63082413  0.61261882  0.98778380     0.15300
H844        H  0.67786821  0.58923405  0.99389735     0.14100
H845        H  0.71875558  0.65049734  0.85234857     0.11800
H846        H  0.65023647  0.60757247  0.83140189     0.13800
C847        C  0.84099505  0.59986201  0.65537296     0.19900
C848        C  0.85232434  0.63143604  0.66341728    -0.18200
C849        C  0.83287230  0.64054761  0.67874065    -0.10500
C850        C  0.80131054  0.61818202  0.68659590     0.22100
C851        C  0.79003562  0.58652821  0.67878896    -0.19800
C852        C  0.80954398  0.57740013  0.66342742    -0.10700
C853        C  0.77887492  0.62668231  0.70160383    -0.14800
C854        C  0.78681367  0.65540430  0.71270703    -0.28700
C855        C  0.86283398  0.59222468  0.63792715    -0.03000
C856        C  0.85692377  0.56321121  0.62977989    -0.39500
H857        H  0.87639820  0.64936938  0.65748788     0.13300
H858        H  0.84271200  0.66521236  0.68373172     0.12900
H859        H  0.76581312  0.56871564  0.68434584     0.12300
H860        H  0.79962710  0.55288773  0.65761648     0.12600
H861        H  0.75413676  0.60817173  0.70312282     0.15300
H862        H  0.81117153  0.67456000  0.71209244     0.14100
H863        H  0.88571894  0.61224074  0.63143548     0.11800
H864        H  0.83487934  0.54228530  0.63622538     0.13800
C865        C  0.64984485  0.80390746  0.84801052     0.19900
C866        C  0.68172468  0.81653928  0.83867852    -0.18200
C867        C  0.69135370  0.79876789  0.82118003    -0.10500
C868        C  0.66913306  0.76786214  0.81248312     0.22100
C869        C  0.63728656  0.75538437  0.82164055    -0.19800
C870        C  0.62770429  0.77304174  0.83915826    -0.10700
C871        C  0.67734661  0.74759827  0.79357918    -0.14800
C872        C  0.70682983  0.75260894  0.78792429    -0.28700
C873        C  0.64060670  0.82431156  0.86540127    -0.03000
C874        C  0.61232355  0.81421104  0.87972756    -0.39500
H875        H  0.69928245  0.84039686  0.84480198     0.13300
H876        H  0.71598802  0.80952459  0.81420597     0.12900
H877        H  0.61955434  0.73172397  0.81511624     0.12300
H878        H  0.60283041  0.76247140  0.84502589     0.12600
H879        H  0.65733039  0.72605750  0.78497364     0.15300
H880        H  0.72759962  0.77317578  0.79678775     0.14100
H881        H  0.65815470  0.84924578  0.86618214     0.11800
H882        H  0.59442083  0.78948029  0.88039925     0.13800
loop_ 
_geom_bond_atom_site_label_1 
_geom_bond_atom_site_label_2 
_geom_bond_distance 
_geom_bond_site_symmetry_2 
_ccdc_geom_bond_type 
O1            C4   1.270       .  A
O1           Cd6   2.471       .  S
C2           O11   1.266       .  A
C2            O7   1.270       .  A
C2          C838   1.474       .  S
O3            C9   1.271       .  A
O3           Cd6   2.492       .  S
C4           O12   1.267       .  A
C4          C820   1.472       .  S
C5           O10   1.272       .  A
C5            O8   1.264       .  A
C5          C872   1.485       .  S
Cd6          O13   2.459       .  S
Cd6          O12   2.413       .  S
Cd6          O11   2.405       .  S
Cd6           O7   2.480       .  S
Cd6          O10   2.519       .  S
Cd6           O8   2.417       .  S
C9           O13   1.267       .  A
C9          C854   1.485       .  S
O14          C17   1.269       .  A
O14         Cd19   2.458       .  S
C15          O24   1.267       .  A
C15          O20   1.269       .  A
C15         C782   1.470       .  S
O16          C22   1.272       .  A
O16         Cd19   2.503       .  S
C17          O25   1.267       .  A
C17         C818   1.470       .  S
C18          O23   1.273       .  A
C18          O21   1.265       .  A
C18         C764   1.482       .  S
Cd19         O26   2.431       .  S
Cd19         O25   2.407       .  S
Cd19         O24   2.420       .  S
Cd19         O20   2.451       .  S
Cd19         O23   2.498       .  S
Cd19         O21   2.421       .  S
C22          O26   1.265       .  A
C22         C800   1.483       .  S
O27          C30   1.271       .  A
O27         Cd32   2.454       .  S
C28          O37   1.266       .  A
C28          O33   1.271       .  A
C28         C784   1.466       .  S
O29          C35   1.275       .  A
O29         Cd32   2.506       .  S
C30          O38   1.266       .  A
C30         C836   1.468       .  S
C31          O36   1.275       .  A
C31          O34   1.266       .  A
C31         C730   1.488       .  S
Cd32         O39   2.408       .  S
Cd32         O38   2.426       .  S
Cd32         O37   2.413       .  S
Cd32         O33   2.453       .  S
Cd32         O36   2.515       .  S
Cd32         O34   2.426       .  S
C35          O39   1.266       .  A
C35         C746   1.484       .  S
O40          C43   1.269       .  A
O40         Cd45   2.476       .  S
C41          O50   1.266       .  A
C41          O46   1.268       .  A
C41         C658   1.473   1_554  S
O42          C48   1.271       .  A
O42         Cd45   2.514       .  S
C43          O51   1.264       .  A
C43         C676   1.469   1_655  S
C44          O49   1.273       .  A
C44          O47   1.265       .  A
C44         C712   1.482       .  S
Cd45         O52   2.438       .  S
Cd45         O51   2.429       .  S
Cd45         O50   2.435       .  S
Cd45         O46   2.463       .  S
Cd45         O49   2.503       .  S
Cd45         O47   2.418       .  S
C48          O52   1.264       .  A
C48         C692   1.484       .  S
O53          C56   1.270       .  A
O53         Cd58   2.468       .  S
C54          O63   1.264   1_655  A
C54          O59   1.268       .  A
C54         C620   1.468   1_655  S
O55          C61   1.272   1_655  A
O55         Cd58   2.509       .  S
C56          O64   1.264       .  A
C56         C656   1.467       .  S
C57          O62   1.272       .  A
C57          O60   1.265       .  A
C57         C638   1.483       .  S
Cd58         O65   2.442   1_655  S
Cd58         O64   2.414       .  S
Cd58         O63   2.430   1_655  S
Cd58         O59   2.471       .  S
Cd58         O62   2.506       .  S
Cd58         O60   2.427       .  S
C61          O65   1.265       .  A
C61         C602   1.485       .  S
O66          C69   1.269       .  A
O66         Cd71   2.463       .  S
C67          O76   1.267       .  A
C67          O72   1.269       .  A
C67         C674   1.471       .  S
O68          C74   1.272       .  A
O68         Cd71   2.498       .  S
C69          O77   1.267       .  A
C69         C622   1.472       .  S
C70          O75   1.272       .  A
C70          O73   1.266       .  A
C70         C584   1.481       .  S
Cd71         O78   2.420       .  S
Cd71         O77   2.410       .  S
Cd71         O76   2.422       .  S
Cd71         O72   2.454       .  S
Cd71         O75   2.498       .  S
Cd71         O73   2.409       .  S
C74          O78   1.265       .  A
C74         C568   1.481       .  S
O79          C82   1.273       .  A
O79         Cd84   2.444       .  S
C80          O89   1.269       .  A
C80          O85   1.272       .  A
C80         C512   1.470       .  S
O81          C87   1.276       .  A
O81         Cd84   2.500       .  S
C82          O90   1.267       .  A
C82         C530   1.469       .  S
C83          O88   1.276   1_455  A
C83          O86   1.266       .  A
C83         C548   1.485       .  S
Cd84         O91   2.438       .  S
Cd84         O90   2.414       .  S
Cd84         O89   2.404       .  S
Cd84         O85   2.446       .  S
Cd84         O88   2.508       .  S
Cd84         O86   2.417   1_655  S
C87          O91   1.268       .  A
C87         C728   1.488       .  S
O92          C95   1.270       .  A
O92         Cd97   2.468       .  S
C93         O102   1.267       .  A
C93          O98   1.271       .  A
C93         C514   1.472       .  S
O94         C100   1.273       .  A
O94         Cd97   2.510       .  S
C95         O103   1.266       .  A
C95         C476   1.472       .  S
C96         O101   1.272       .  A
C96          O99   1.266       .  A
C96         C494   1.483       .  S
Cd97        O104   2.429       .  S
Cd97        O103   2.417       .  S
Cd97        O102   2.397       .  S
Cd97         O98   2.473       .  S
Cd97        O101   2.492       .  S
Cd97         O99   2.446       .  S
C100        O104   1.265       .  A
C100        C710   1.485       .  S
O105        C108   1.270       .  A
O105       Cd110   2.470       .  S
C106        O115   1.266       .  A
C106        O111   1.271       .  A
C106        C532   1.469       .  S
O107        C113   1.273       .  A
O107       Cd110   2.497       .  S
C108        O116   1.267       .  A
C108        C478   1.475       .  S
C109        O114   1.274       .  A
C109        O112   1.265       .  A
C109        C856   1.487       .  S
Cd110       O117   2.441       .  S
Cd110       O116   2.411       .  S
Cd110       O115   2.424       .  S
Cd110       O111   2.462       .  S
Cd110       O114   2.519       .  S
Cd110       O112   2.419       .  S
C113        O117   1.267       .  A
C113        C566   1.484       .  S
O118        C121   1.271   1_545  A
O118       Cd123   2.459       .  S
C119        O128   1.265       .  A
C119        O124   1.270       .  A
C119        C460   1.464       .  S
O120        C126   1.274       .  A
O120       Cd123   2.488       .  S
C121        O129   1.264   1_565  A
C121        C440   1.465       .  S
C122        O127   1.273       .  A
C122        O125   1.264       .  A
C122        C496   1.487       .  S
Cd123       O130   2.435       .  S
Cd123       O129   2.407       .  S
Cd123       O128   2.414       .  S
Cd123       O124   2.455       .  S
Cd123       O127   2.524   1_545  S
Cd123       O125   2.428   1_545  S
C126        O130   1.267       .  A
C126        C422   1.483       .  S
O131        C134   1.272       .  A
O131       Cd136   2.455       .  S
C132        O141   1.265       .  A
C132        O137   1.272       .  A
C132        C442   1.464       .  S
O133        C139   1.275       .  A
O133       Cd136   2.491       .  S
C134        O142   1.266       .  A
C134        C386   1.464       .  S
C135        O140   1.275       .  A
C135        O138   1.266       .  A
C135        C406   1.484       .  S
Cd136       O143   2.403       .  S
Cd136       O142   2.404       .  S
Cd136       O141   2.399       .  S
Cd136       O137   2.450       .  S
Cd136       O140   2.508       .  S
Cd136       O138   2.403       .  S
C139        O143   1.267       .  A
C139        C550   1.481       .  S
O144        C147   1.270   1_565  A
O144       Cd149   2.473   1_565  S
C145        O154   1.267   1_565  A
C145        O150   1.270       .  A
C145        C388   1.473       .  S
O146        C152   1.271   1_545  A
O146       Cd149   2.475       .  S
C147        O155   1.266       .  A
C147        C458   1.473   1_554  S
C148        O153   1.272       .  A
C148        O151   1.265       .  A
C148        C370   1.480       .  S
Cd149       O156   2.433   1_545  S
Cd149       O155   2.407       .  S
Cd149       O154   2.398       .  S
Cd149       O150   2.471   1_545  S
Cd149       O153   2.501       .  S
Cd149       O151   2.395       .  S
C152        O156   1.267       .  A
C152        C350   1.477       .  S
O157        C160   1.271       .  A
O157       Cd162   2.467       .  S
C158        O167   1.267       .  A
C158        O163   1.271   1_565  A
C158        C334   1.476       .  S
O159        C165   1.273       .  A
O159       Cd162   2.499       .  S
C160        O168   1.265       .  A
C160        C314   1.469       .  S
C161        O166   1.273       .  A
C161        O164   1.265       .  A
C161        C766   1.484       .  S
Cd162       O169   2.438       .  S
Cd162       O168   2.425       .  S
Cd162       O167   2.415   1_545  S
Cd162       O163   2.476       .  S
Cd162       O166   2.512   1_545  S
Cd162       O164   2.416   1_545  S
C165        O169   1.267       .  A
C165        C694   1.485       .  S
O170        C173   1.273       .  A
O170       Cd175   2.464       .  S
C171        O180   1.267       .  A
C171        O176   1.274   1_545  A
C171        C296   1.469   1_545  S
O172        C178   1.275       .  A
O172       Cd175   2.491       .  S
C173        O181   1.268       .  A
C173        C316   1.475       .  S
C174        O179   1.275       .  A
C174        O177   1.267   1_545  A
C174        C404   1.479       .  S
Cd175       O182   2.419       .  S
Cd175       O181   2.404       .  S
Cd175       O180   2.410       .  S
Cd175       O176   2.449   1_545  S
Cd175       O179   2.479       .  S
Cd175       O177   2.413   1_545  S
C178        O182   1.268       .  A
C178        C640   1.483       .  S
O183        C186   1.273       .  A
O183       Cd188   2.474       .  S
C184        O193   1.266       .  A
C184        O189   1.271       .  A
C184        C332   1.473   1_556  S
O185        C191   1.274       .  A
O185       Cd188   2.509       .  S
C186        O194   1.265       .  A
C186        C298   1.469       .  S
C187        O192   1.274       .  A
C187        O190   1.268       .  A
C187        C874   1.482       .  S
Cd188       O195   2.395       .  S
Cd188       O194   2.404       .  S
Cd188       O193   2.438       .  S
Cd188       O189   2.463       .  S
Cd188       O192   2.485       .  S
Cd188       O190   2.423       .  S
C191        O195   1.265       .  A
C191        C352   1.482       .  S
O196        C199   1.273       .  A
O196       Cd201   2.473       .  S
C197        O206   1.266       .  A
C197        O202   1.273       .  A
C197        C280   1.472       .  S
O198        C204   1.273       .  A
O198       Cd201   2.483       .  S
C199        O207   1.267       .  A
C199        C260   1.472       .  S
C200        O205   1.273       .  A
C200        O203   1.268       .  A
C200        C368   1.480       .  S
Cd201       O208   2.413       .  S
Cd201       O207   2.378       .  S
Cd201       O206   2.406       .  S
Cd201       O202   2.483       .  S
Cd201       O205   2.480       .  S
Cd201       O203   2.428       .  S
C204        O208   1.267       .  A
C204        C586   1.479       .  S
O209        C212   1.269       .  A
O209       Cd214   2.456       .  S
C210        O219   1.266       .  A
C210        O215   1.268       .  A
C210        C244   1.471       .  S
O211        C217   1.273       .  A
O211       Cd214   2.488       .  S
C212        O220   1.264       .  A
C212        C262   1.466   1_556  S
C213        O218   1.272       .  A
C213        O216   1.263       .  A
C213        C748   1.486       .  S
Cd214       O221   2.426       .  S
Cd214       O220   2.430       .  S
Cd214       O219   2.439       .  S
Cd214       O215   2.463       .  S
Cd214       O218   2.526       .  S
Cd214       O216   2.425       .  S
C217        O221   1.267       .  A
C217        C604   1.482       .  S
O222        C225   1.273       .  A
O222       Cd227   2.465       .  S
C223        O232   1.268       .  A
C223        O228   1.272       .  A
C223        C242   1.478       .  S
O224        C230   1.273       .  A
O224       Cd227   2.506       .  S
C225        O233   1.266       .  A
C225        C278   1.473       .  S
C226        O231   1.274       .  A
C226        O229   1.267       .  A
C226        C802   1.482       .  S
Cd227       O234   2.434       .  S
Cd227       O233   2.429       .  S
Cd227       O232   2.389       .  S
Cd227       O228   2.485       .  S
Cd227       O231   2.496       .  S
Cd227       O229   2.413       .  S
C230        O234   1.266       .  A
C230        C424   1.486       .  S
C235        C243   1.483       .  S
C235        C236   1.407       .  A
C235        C240   1.404       .  A
C236        C237   1.403       .  A
C236        H245   1.083       .  S
C237        C238   1.406       .  A
C237        H246   1.082       .  S
C238        C241   1.479       .  S
C238        C239   1.402       .  A
C239        C240   1.392       .  A
C239        H247   1.084       .  S
C240        H248   1.082       .  S
C241        H249   1.087       .  S
C241        C242   1.346       .  D
C242        H250   1.085       .  S
C243        H251   1.087       .  S
C243        C244   1.347       .  D
C244        H252   1.086       .  S
C253        C261   1.476       .  S
C253        C254   1.402       .  A
C253        C258   1.403       .  A
C254        C255   1.396       .  A
C254        H263   1.083       .  S
C255        C256   1.406       .  A
C255        H264   1.081       .  S
C256        C259   1.479       .  S
C256        C257   1.404       .  A
C257        C258   1.395       .  A
C257        H265   1.084       .  S
C258        H266   1.083       .  S
C259        H267   1.087       .  S
C259        C260   1.348       .  D
C260        H268   1.085       .  S
C261        H269   1.087       .  S
C261        C262   1.341       .  D
C262        H270   1.087       .  S
C271        C279   1.485       .  S
C271        C272   1.402       .  A
C271        C276   1.408       .  A
C272        C273   1.401       .  A
C272        H281   1.083       .  S
C273        C274   1.409       .  A
C273        H282   1.082       .  S
C274        C277   1.482       .  S
C274        C275   1.400       .  A
C275        C276   1.396       .  A
C275        H283   1.083       .  S
C276        H284   1.083       .  S
C277        H285   1.087       .  S
C277        C278   1.341       .  D
C278        H286   1.086       .  S
C279        H287   1.087       .  S
C279        C280   1.343       .  D
C280        H288   1.086       .  S
C289        C297   1.481       .  S
C289        C290   1.400       .  A
C289        C294   1.408       .  A
C290        C291   1.398       .  A
C290        H299   1.083       .  S
C291        C292   1.409       .  A
C291        H300   1.082   1_565  S
C292        C295   1.481       .  S
C292        C293   1.400       .  A
C293        C294   1.396       .  A
C293        H301   1.083       .  S
C294        H302   1.082       .  S
C295        H303   1.087       .  S
C295        C296   1.340       .  D
C296        H304   1.086   1_565  S
C297        H305   1.087       .  S
C297        C298   1.340       .  D
C298        H306   1.086       .  S
C307        C315   1.482       .  S
C307        C308   1.403       .  A
C307        C312   1.407       .  A
C308        C309   1.397       .  A
C308        H317   1.083       .  S
C309        C310   1.405       .  A
C309        H318   1.082       .  S
C310        C313   1.482       .  S
C310        C311   1.403       .  A
C311        C312   1.399       .  A
C311        H319   1.083   1_545  S
C312        H320   1.082   1_545  S
C313        H321   1.087       .  S
C313        C314   1.343       .  D
C314        H322   1.086       .  S
C315        H323   1.087       .  S
C315        C316   1.347       .  D
C316        H324   1.085   1_545  S
C325        C333   1.483       .  S
C325        C326   1.404       .  A
C325        C330   1.406       .  A
C326        C327   1.398       .  A
C326        H335   1.083       .  S
C327        C328   1.405       .  A
C327        H336   1.083       .  S
C328        C331   1.483       .  S
C328        C329   1.403       .  A
C329        C330   1.399       .  A
C329        H337   1.083       .  S
C330        H338   1.082       .  S
C331        H339   1.087   1_554  S
C331        C332   1.344       .  D
C332        H340   1.086       .  S
C333        H341   1.087       .  S
C333        C334   1.348       .  D
C334        H342   1.085       .  S
C343        C351   1.489       .  S
C343        C344   1.405       .  A
C343        C348   1.407   1_556  A
C344        C345   1.396   1_556  A
C344        H353   1.084       .  S
C345        C346   1.406       .  A
C345        H354   1.080       .  S
C346        C349   1.491       .  S
C346        C347   1.407       .  A
C347        C348   1.402       .  A
C347        H355   1.083       .  S
C348        H356   1.080   1_554  S
C349        H357   1.087       .  S
C349        C350   1.351       .  D
C350        H358   1.083   1_565  S
C351        H359   1.087       .  S
C351        C352   1.352       .  D
C352        H360   1.083       .  S
C361        C369   1.486       .  S
C361        C362   1.405       .  A
C361        C366   1.404       .  A
C362        C363   1.397       .  A
C362        H371   1.084       .  S
C363        C364   1.407       .  A
C363        H372   1.079       .  S
C364        C367   1.493       .  S
C364        C365   1.408       .  A
C365        C366   1.401       .  A
C365        H373   1.083       .  S
C366        H374   1.081       .  S
C367        H375   1.087       .  S
C367        C368   1.352       .  D
C368        H376   1.082       .  S
C369        H377   1.087       .  S
C369        C370   1.350       .  D
C370        H378   1.084       .  S
C379        C387   1.477       .  S
C379        C380   1.400       .  A
C379        C384   1.407       .  A
C380        C381   1.392       .  A
C380        H389   1.084       .  S
C381        C382   1.404       .  A
C381        H390   1.083       .  S
C382        C385   1.478       .  S
C382        C383   1.403       .  A
C383        C384   1.400       .  A
C383        H391   1.083       .  S
C384        H392   1.082       .  S
C385        H393   1.087       .  S
C385        C386   1.342       .  D
C386        H394   1.087       .  S
C387        H395   1.087   1_565  S
C387        C388   1.345       .  D
C388        H396   1.086       .  S
C397        C405   1.492       .  S
C397        C398   1.406       .  A
C397        C402   1.407       .  A
C398        C399   1.397       .  A
C398        H407   1.084   1_565  S
C399        C400   1.405       .  A
C399        H408   1.080   1_565  S
C400        C403   1.491       .  S
C400        C401   1.408       .  A
C401        C402   1.403       .  A
C401        H409   1.083       .  S
C402        H410   1.080       .  S
C403        H411   1.087       .  S
C403        C404   1.352   1_565  D
C404        H412   1.083       .  S
C405        H413   1.087       .  S
C405        C406   1.352       .  D
C406        H414   1.083       .  S
C415        C423   1.496       .  S
C415        C416   1.408       .  A
C415        C420   1.408       .  A
C416        C417   1.400       .  A
C416        H425   1.083       .  S
C417        C418   1.406       .  A
C417        H426   1.081       .  S
C418        C421   1.492       .  S
C418        C419   1.406       .  A
C419        C420   1.403       .  A
C419        H427   1.083       .  S
C420        H428   1.080       .  S
C421        H429   1.087       .  S
C421        C422   1.352       .  D
C422        H430   1.084       .  S
C423        H431   1.087       .  S
C423        C424   1.353       .  D
C424        H432   1.083       .  S
C433        C441   1.474       .  S
C433        C434   1.398       .  A
C433        C438   1.407       .  A
C434        C435   1.395       .  A
C434        H443   1.083       .  S
C435        C436   1.408       .  A
C435        H444   1.083   1_565  S
C436        C439   1.477       .  S
C436        C437   1.399       .  A
C437        C438   1.395       .  A
C437        H445   1.083       .  S
C438        H446   1.083       .  S
C439        H447   1.087       .  S
C439        C440   1.339       .  D
C440        H448   1.086       .  S
C441        H449   1.087       .  S
C441        C442   1.338       .  D
C442        H450   1.087       .  S
C451        C459   1.478       .  S
C451        C452   1.402   1_545  A
C451        C456   1.404       .  A
C452        C453   1.397       .  A
C452        H461   1.084       .  S
C453        C454   1.407   1_565  A
C453        H462   1.081       .  S
C454        C457   1.482       .  S
C454        C455   1.404       .  A
C455        C456   1.395       .  A
C455        H463   1.084       .  S
C456        H464   1.083       .  S
C457        H465   1.087       .  S
C457        C458   1.347       .  D
C458        H466   1.084   1_545  S
C459        H467   1.088   1_545  S
C459        C460   1.341       .  D
C460        H468   1.086       .  S
C469        C477   1.482       .  S
C469        C470   1.403       .  A
C469        C474   1.406   1_655  A
C470        C471   1.395       .  A
C470        H479   1.084       .  S
C471        C472   1.404   1_655  A
C471        H480   1.082       .  S
C472        C475   1.480       .  S
C472        C473   1.404       .  A
C473        C474   1.399       .  A
C473        H481   1.083       .  S
C474        H482   1.082       .  S
C475        H483   1.087       .  S
C475        C476   1.346       .  D
C476        H484   1.085   1_455  S
C477        H485   1.087       .  S
C477        C478   1.346       .  D
C478        H486   1.085   1_655  S
C487        C495   1.496       .  S
C487        C488   1.407       .  A
C487        C492   1.407       .  A
C488        C489   1.400       .  A
C488        H497   1.084       .  S
C489        C490   1.406       .  A
C489        H498   1.080       .  S
C490        C493   1.495       .  S
C490        C491   1.408       .  A
C491        C492   1.404       .  A
C491        H499   1.083       .  S
C492        H500   1.080       .  S
C493        H501   1.087       .  S
C493        C494   1.353       .  D
C494        H502   1.084       .  S
C495        H503   1.087       .  S
C495        C496   1.354       .  D
C496        H504   1.083       .  S
C505        C513   1.477       .  S
C505        C506   1.403       .  A
C505        C510   1.405       .  A
C506        C507   1.395       .  A
C506        H515   1.084       .  S
C507        C508   1.405       .  A
C507        H516   1.082       .  S
C508        C511   1.479   1_455  S
C508        C509   1.404   1_455  A
C509        C510   1.397   1_655  A
C509        H517   1.083       .  S
C510        H518   1.082       .  S
C511        H519   1.087       .  S
C511        C512   1.345       .  D
C512        H520   1.085       .  S
C513        H521   1.088       .  S
C513        C514   1.346   1_554  D
C514        H522   1.085   1_455  S
C523        C531   1.480       .  S
C523        C524   1.401       .  A
C523        C528   1.406       .  A
C524        C525   1.398       .  A
C524        H533   1.083       .  S
C525        C526   1.410       .  A
C525        H534   1.081       .  S
C526        C529   1.483       .  S
C526        C527   1.401       .  A
C527        C528   1.396       .  A
C527        H535   1.083       .  S
C528        H536   1.083       .  S
C529        H537   1.087       .  S
C529        C530   1.342       .  D
C530        H538   1.085       .  S
C531        H539   1.087       .  S
C531        C532   1.341       .  D
C532        H540   1.086       .  S
C541        C549   1.489       .  S
C541        C542   1.405       .  A
C541        C546   1.405       .  A
C542        C543   1.400       .  A
C542        H551   1.084       .  S
C543        C544   1.407       .  A
C543        H552   1.080       .  S
C544        C547   1.495       .  S
C544        C545   1.408       .  A
C545        C546   1.401       .  A
C545        H553   1.083       .  S
C546        H554   1.081       .  S
C547        H555   1.087       .  S
C547        C548   1.354       .  D
C548        H556   1.083       .  S
C549        H557   1.087       .  S
C549        C550   1.351       .  D
C550        H558   1.084       .  S
C559        C567   1.492       .  S
C559        C560   1.407   1_455  A
C559        C564   1.406       .  A
C560        C561   1.401       .  A
C560        H569   1.083       .  S
C561        C562   1.408       .  A
C561        H570   1.080       .  S
C562        C565   1.495       .  S
C562        C563   1.407   1_655  A
C563        C564   1.401       .  A
C563        H571   1.083       .  S
C564        H572   1.080       .  S
C565        H573   1.087   1_655  S
C565        C566   1.353       .  D
C566        H574   1.083       .  S
C567        H575   1.087       .  S
C567        C568   1.352       .  D
C568        H576   1.083       .  S
C577        C585   1.490       .  S
C577        C578   1.407       .  A
C577        C582   1.405       .  A
C578        C579   1.400       .  A
C578        H587   1.083       .  S
C579        C580   1.406       .  A
C579        H588   1.080       .  S
C580        C583   1.490       .  S
C580        C581   1.406       .  A
C581        C582   1.398       .  A
C581        H589   1.084       .  S
C582        H590   1.080       .  S
C583        H591   1.087       .  S
C583        C584   1.351       .  D
C584        H592   1.083       .  S
C585        H593   1.087       .  S
C585        C586   1.351       .  D
C586        H594   1.083       .  S
C595        C603   1.495       .  S
C595        C596   1.407       .  A
C595        C600   1.407       .  A
C596        C597   1.401       .  A
C596        H605   1.083       .  S
C597        C598   1.407       .  A
C597        H606   1.080       .  S
C598        C601   1.496       .  S
C598        C599   1.407       .  A
C599        C600   1.401       .  A
C599        H607   1.083       .  S
C600        H608   1.080       .  S
C601        H609   1.087       .  S
C601        C602   1.353       .  D
C602        H610   1.083       .  S
C603        H611   1.087       .  S
C603        C604   1.352       .  D
C604        H612   1.082       .  S
C613        C621   1.481       .  S
C613        C614   1.402       .  A
C613        C618   1.408       .  A
C614        C615   1.395       .  A
C614        H623   1.084       .  S
C615        C616   1.405       .  A
C615        H624   1.082       .  S
C616        C619   1.481       .  S
C616        C617   1.402   1_455  A
C617        C618   1.398   1_655  A
C617        H625   1.083       .  S
C618        H626   1.081   1_455  S
C619        H627   1.087   1_455  S
C619        C620   1.343       .  D
C620        H628   1.086       .  S
C621        H629   1.087       .  S
C621        C622   1.345       .  D
C622        H630   1.085       .  S
C631        C639   1.493       .  S
C631        C632   1.407       .  A
C631        C636   1.407       .  A
C632        C633   1.401       .  A
C632        H641   1.083       .  S
C633        C634   1.406       .  A
C633        H642   1.081       .  S
C634        C637   1.491       .  S
C634        C635   1.406       .  A
C635        C636   1.400       .  A
C635        H643   1.083       .  S
C636        H644   1.080       .  S
C637        H645   1.087       .  S
C637        C638   1.352       .  D
C638        H646   1.084       .  S
C639        H647   1.087       .  S
C639        C640   1.353       .  D
C640        H648   1.083       .  S
C649        C657   1.483       .  S
C649        C650   1.403       .  A
C649        C654   1.407       .  A
C650        C651   1.397       .  A
C650        H659   1.083       .  S
C651        C652   1.406       .  A
C651        H660   1.082       .  S
C652        C655   1.481       .  S
C652        C653   1.402       .  A
C653        C654   1.397       .  A
C653        H661   1.084       .  S
C654        H662   1.082       .  S
C655        H663   1.088       .  S
C655        C656   1.342       .  D
C656        H664   1.086       .  S
C657        H665   1.087       .  S
C657        C658   1.346       .  D
C658        H666   1.085       .  S
C667        C675   1.480       .  S
C667        C668   1.402       .  A
C667        C672   1.405       .  A
C668        C669   1.397       .  A
C668        H677   1.083       .  S
C669        C670   1.407       .  A
C669        H678   1.082       .  S
C670        C673   1.481       .  S
C670        C671   1.403       .  A
C671        C672   1.397       .  A
C671        H679   1.083       .  S
C672        H680   1.083       .  S
C673        H681   1.087       .  S
C673        C674   1.346       .  D
C674        H682   1.085       .  S
C675        H683   1.087       .  S
C675        C676   1.342       .  D
C676        H684   1.086       .  S
C685        C693   1.495       .  S
C685        C686   1.408       .  A
C685        C690   1.407       .  A
C686        C687   1.402       .  A
C686        H695   1.083       .  S
C687        C688   1.405       .  A
C687        H696   1.081       .  S
C688        C691   1.492       .  S
C688        C689   1.406       .  A
C689        C690   1.401       .  A
C689        H697   1.083       .  S
C690        H698   1.081       .  S
C691        H699   1.087       .  S
C691        C692   1.352       .  D
C692        H700   1.085       .  S
C693        H701   1.087       .  S
C693        C694   1.353       .  D
C694        H702   1.084       .  S
C703        C711   1.493       .  S
C703        C704   1.408   1_655  A
C703        C708   1.406       .  A
C704        C705   1.401   1_554  A
C704        H713   1.083       .  S
C705        C706   1.407       .  A
C705        H714   1.080       .  S
C706        C709   1.494       .  S
C706        C707   1.407   1_456  A
C707        C708   1.400       .  A
C707        H715   1.083   1_554  S
C708        H716   1.080       .  S
C709        H717   1.087   1_455  S
C709        C710   1.353       .  D
C710        H718   1.083       .  S
C711        H719   1.087   1_655  S
C711        C712   1.353       .  D
C712        H720   1.083       .  S
C721        C729   1.497       .  S
C721        C722   1.407       .  A
C721        C726   1.407       .  A
C722        C723   1.402       .  A
C722        H731   1.083       .  S
C723        C724   1.407       .  A
C723        H732   1.080       .  S
C724        C727   1.500       .  S
C724        C725   1.409       .  A
C725        C726   1.404       .  A
C725        H733   1.083       .  S
C726        H734   1.081       .  S
C727        H735   1.087       .  S
C727        C728   1.356       .  D
C728        H736   1.083       .  S
C729        H737   1.087       .  S
C729        C730   1.355       .  D
C730        H738   1.084       .  S
C739        C747   1.493       .  S
C739        C740   1.407   1_556  A
C739        C744   1.406   1_556  A
C740        C741   1.400       .  A
C740        H749   1.083       .  S
C741        C742   1.405       .  A
C741        H750   1.080       .  S
C742        C745   1.493       .  S
C742        C743   1.408       .  A
C743        C744   1.402       .  A
C743        H751   1.083       .  S
C744        H752   1.081       .  S
C745        H753   1.087       .  S
C745        C746   1.354       .  D
C746        H754   1.083       .  S
C747        H755   1.087       .  S
C747        C748   1.353       .  D
C748        H756   1.084       .  S
C757        C765   1.493       .  S
C757        C758   1.407       .  A
C757        C762   1.406       .  A
C758        C759   1.400       .  A
C758        H767   1.083       .  S
C759        C760   1.406       .  A
C759        H768   1.080       .  S
C760        C763   1.494       .  S
C760        C761   1.408       .  A
C761        C762   1.401       .  A
C761        H769   1.083       .  S
C762        H770   1.080       .  S
C763        H771   1.087       .  S
C763        C764   1.353       .  D
C764        H772   1.083       .  S
C765        H773   1.087       .  S
C765        C766   1.353       .  D
C766        H774   1.083       .  S
C775        C783   1.476       .  S
C775        C776   1.401       .  A
C775        C780   1.405       .  A
C776        C777   1.396       .  A
C776        H785   1.084       .  S
C777        C778   1.406       .  A
C777        H786   1.082       .  S
C778        C781   1.478       .  S
C778        C779   1.402       .  A
C779        C780   1.396       .  A
C779        H787   1.083       .  S
C780        H788   1.083       .  S
C781        H789   1.087       .  S
C781        C782   1.345       .  D
C782        H790   1.086       .  S
C783        H791   1.087       .  S
C783        C784   1.341       .  D
C784        H792   1.087       .  S
C793        C801   1.493       .  S
C793        C794   1.407       .  A
C793        C798   1.407       .  A
C794        C795   1.400       .  A
C794        H803   1.083       .  S
C795        C796   1.406       .  A
C795        H804   1.081       .  S
C796        C799   1.493       .  S
C796        C797   1.407       .  A
C797        C798   1.401       .  A
C797        H805   1.083       .  S
C798        H806   1.080       .  S
C799        H807   1.087       .  S
C799        C800   1.352       .  D
C800        H808   1.084       .  S
C801        H809   1.087       .  S
C801        C802   1.353       .  D
C802        H810   1.083       .  S
C811        C819   1.479       .  S
C811        C812   1.403       .  A
C811        C816   1.405       .  A
C812        C813   1.397       .  A
C812        H821   1.083       .  S
C813        C814   1.405       .  A
C813        H822   1.082       .  S
C814        C817   1.478       .  S
C814        C815   1.403       .  A
C815        C816   1.395       .  A
C815        H823   1.084       .  S
C816        H824   1.082       .  S
C817        H825   1.087       .  S
C817        C818   1.345       .  D
C818        H826   1.085       .  S
C819        H827   1.087       .  S
C819        C820   1.346       .  D
C820        H828   1.085       .  S
C829        C837   1.481       .  S
C829        C830   1.403       .  A
C829        C834   1.407       .  A
C830        C831   1.395       .  A
C830        H839   1.084       .  S
C831        C832   1.405       .  A
C831        H840   1.082       .  S
C832        C835   1.480       .  S
C832        C833   1.403       .  A
C833        C834   1.399       .  A
C833        H841   1.083       .  S
C834        H842   1.082       .  S
C835        H843   1.087       .  S
C835        C836   1.342   1_556  D
C836        H844   1.086   1_554  S
C837        H845   1.087       .  S
C837        C838   1.346       .  D
C838        H846   1.085       .  S
C847        C855   1.496       .  S
C847        C848   1.407       .  A
C847        C852   1.407       .  A
C848        C849   1.400       .  A
C848        H857   1.084       .  S
C849        C850   1.407       .  A
C849        H858   1.080       .  S
C850        C853   1.499       .  S
C850        C851   1.409       .  A
C851        C852   1.404       .  A
C851        H859   1.083       .  S
C852        H860   1.080       .  S
C853        H861   1.087       .  S
C853        C854   1.353       .  D
C854        H862   1.083       .  S
C855        H863   1.087       .  S
C855        C856   1.355       .  D
C856        H864   1.083       .  S
C865        C873   1.494       .  S
C865        C866   1.408       .  A
C865        C870   1.406       .  A
C866        C867   1.403       .  A
C866        H875   1.083       .  S
C867        C868   1.406       .  A
C867        H876   1.081       .  S
C868        C871   1.491       .  S
C868        C869   1.406       .  A
C869        C870   1.398       .  A
C869        H877   1.084       .  S
C870        H878   1.080       .  S
C871        H879   1.087       .  S
C871        C872   1.353       .  D
C872        H880   1.084       .  S
C873        H881   1.087       .  S
C873        C874   1.353       .  D
C874        H882   1.083       .  S
