geometry optimzed in LAMMPS
_audit_creation_date              2020-12-01 
_audit_creation_method            'lammps2cif' 
_symmetry_space_group_name_H-M    'P1' 
_symmetry_Int_Tables_number       1 
_symmetry_cell_setting            triclinic 
loop_ 
_symmetry_equiv_pos_as_xyz 
  x,y,z 
_cell_length_a                    36.31598141 
_cell_length_b                    40.63109609728108 
_cell_length_c                    37.94955884728041 
_cell_angle_alpha                 89.76359265601285 
_cell_angle_beta                  90.31531685533858 
_cell_angle_gamma                 89.9663261476242 
loop_ 
_atom_site_label 
_atom_site_type_symbol 
_atom_site_fract_x 
_atom_site_fract_y 
_atom_site_fract_z 
_atom_site_charge 
C1          C  0.77786684  0.86283877  0.00694531     0.03000
C2          C  0.80022334  0.89047425  0.00348577    -0.13200
C3          C  0.82993936  0.89054138  0.98017045     0.00500
C4          C  0.83655934  0.86213577  0.95930630    -0.11700
C5          C  0.81214242  0.83467594  0.96065818     0.03000
C6          C  0.78249302  0.83627429  0.98429007    -0.11100
H7          H  0.79612155  0.91103129  0.02117797     0.08600
H8          H  0.86064959  0.86155837  0.94274096     0.06100
H9          H  0.76327186  0.81605394  0.98641485     0.05900
C10         C  0.75241718  0.14904306  0.03280944     0.03000
C11         C  0.78553099  0.13041120  0.03303275    -0.13200
C12         C  0.79579633  0.11143721  0.00311768     0.00500
C13         C  0.77409540  0.11481425  0.97171689    -0.11700
C14         C  0.74217001  0.13528179  0.97087097     0.03000
C15         C  0.73042136  0.14905434  0.00262281    -0.11100
H16         H  0.80250625  0.12988892  0.05658388     0.08600
H17         H  0.78286040  0.10259158  0.94788633     0.06100
H18         H  0.70453539  0.16233299  0.00331853     0.05900
C19         C  0.11992046  0.89279995  0.03269702     0.03000
C20         C  0.08653213  0.90965728  0.02871042    -0.13200
C21         C  0.07484795  0.92064567  0.99552144     0.00500
C22         C  0.09625300  0.91323755  0.96555351    -0.11700
C23         C  0.13030422  0.89661437  0.96967794     0.03000
C24         C  0.14226334  0.88777425  0.00340017    -0.11100
H25         H  0.06885559  0.91343935  0.05122029     0.08600
H26         H  0.08615238  0.91959501  0.93952180     0.06100
H27         H  0.16774175  0.87405062  0.00640786     0.05900
C28         C  0.78936619  0.02116723  0.82566869     0.03000
C29         C  0.81290801  0.02397633  0.85486373    -0.13200
C30         C  0.81877169  0.99732128  0.87774903     0.00500
C31         C  0.79985228  0.96714663  0.87126574    -0.11700
C32         C  0.77704405  0.96385176  0.84083891     0.03000
C33         C  0.77245854  0.99104780  0.81862970    -0.11100
H34         H  0.82560900  0.04745099  0.86080686     0.08600
H35         H  0.80354888  0.94646387  0.88901234     0.06100
H36         H  0.75461633  0.98889474  0.79575246     0.05900
C37         C  0.90454017  0.15610330  0.83894934     0.03000
C38         C  0.90142237  0.14146845  0.87284543    -0.13200
C39         C  0.93345961  0.13414991  0.89328414     0.00500
C40         C  0.96795236  0.14646518  0.88065990    -0.11700
C41         C  0.97027436  0.16122487  0.84654026     0.03000
C42         C  0.93918619  0.16184131  0.82522390    -0.11100
H43         H  0.87444908  0.13503328  0.88275489     0.08600
H44         H  0.99256218  0.14397918  0.89669366     0.06100
H45         H  0.94123854  0.17363357  0.79953611     0.05900
C46         C  0.91792461  0.90277007  0.81875129     0.03000
C47         C  0.92235581  0.92547006  0.84602980    -0.13200
C48         C  0.95491963  0.92636165  0.86589022     0.00500
C49         C  0.98578863  0.90800089  0.85476617    -0.11700
C50         C  0.98301990  0.88857991  0.82403558     0.03000
C51         C  0.94888692  0.88532305  0.80718524    -0.11100
H52         H  0.89934833  0.94069933  0.85389340     0.08600
H53         H  0.01144073  0.90909244  0.86941012     0.06100
H54         H  0.94629738  0.86763043  0.78601913     0.05900
C55         C  0.09176754  0.06772318  0.85218395     0.03000
C56         C  0.06442785  0.06518263  0.87797337    -0.13200
C57         C  0.05719868  0.03498930  0.89382920     0.00500
C58         C  0.07401470  0.00646438  0.88163413    -0.11700
C59         C  0.09961118  0.00828320  0.85430528     0.03000
C60         C  0.10925910  0.03908520  0.84043530    -0.11100
H61         H  0.04867097  0.08652216  0.88587707     0.08600
H62         H  0.06567760  0.98282682  0.89227128     0.06100
H63         H  0.13053199  0.04066036  0.82059971     0.05900
C64         C  0.89387174  0.83449788  0.11399483     0.03000
C65         C  0.89884886  0.86784862  0.10435122    -0.13200
C66         C  0.93397639  0.87947077  0.09396516     0.00500
C67         C  0.96476089  0.85786813  0.09803652    -0.11700
C68         C  0.95983826  0.82473058  0.10964012     0.03000
C69         C  0.92379632  0.81318833  0.11342808    -0.11100
H70         H  0.87544148  0.88435767  0.10401628     0.08600
H71         H  0.99210347  0.86718841  0.09289438     0.06100
H72         H  0.91908602  0.78758256  0.12021742     0.05900
C73         C  0.75949532  0.03292780  0.14097913     0.03000
C74         C  0.74286813  0.00527802  0.15656978    -0.13200
C75         C  0.75436940  0.97315058  0.14896398     0.00500
C76         C  0.78504030  0.96858624  0.12630038    -0.11700
C77         C  0.80277602  0.99630606  0.11087904     0.03000
C78         C  0.78914770  0.02795207  0.11794140    -0.11100
H79         H  0.72123806  0.00854331  0.17574063     0.08600
H80         H  0.79484954  0.94399944  0.12077493     0.06100
H81         H  0.80191774  0.04892254  0.10518839     0.05900
C82         C  0.89444168  0.12625888  0.18968261     0.03000
C83         C  0.89509029  0.11051834  0.15655943    -0.13200
C84         C  0.92896241  0.10200192  0.14062873     0.00500
C85         C  0.96227295  0.11301947  0.15723175    -0.11700
C86         C  0.96113011  0.12924280  0.19052744     0.03000
C87         C  0.92733291  0.13223713  0.20741275    -0.11100
H88         H  0.86944382  0.10591396  0.14274225     0.08600
H89         H  0.98839437  0.10979163  0.14406419     0.06100
H90         H  0.92628690  0.14520921  0.23238313     0.05900
Zr91       Zr  0.22052326  0.28514403  0.30953125     2.17500
O92         O  0.26886002  0.29968496  0.35167829    -0.51500
O93         O  0.21529363  0.34176166  0.32828842    -0.74700
O94         O  0.27985024  0.29000778  0.28406904    -0.81500
O95         O  0.15639832  0.26572317  0.37912410    -0.83200
O96         O  0.26713097  0.31747226  0.23439774    -0.78800
O97         O  0.21267102  0.25368925  0.36215627    -0.90500
O98         O  0.17946062  0.36814898  0.28816987    -0.76400
O99         O  0.20179363  0.31558024  0.25892370    -0.85900
O100        O  0.15649736  0.29686805  0.31761754    -0.85600
O101        O  0.23607379  0.25011452  0.26038780    -0.72400
O102        O  0.19155473  0.23261606  0.31747053    -0.84500
Zr103      Zr  0.12340474  0.24120911  0.22309423     2.26400
Zr104      Zr  0.21670117  0.28163795  0.20971717     2.06300
Zr105      Zr  0.12670498  0.24400120  0.32414732     2.10000
Zr106      Zr  0.13806375  0.32647146  0.26667095     1.78800
O107        O  0.12510354  0.19845803  0.36602081    -0.93300
O108        O  0.13394047  0.37089795  0.22348497    -0.41100
O109        O  0.10739408  0.27471729  0.27260252    -0.77800
O110        O  0.15220549  0.29440291  0.21613570    -0.96400
O111        O  0.18718763  0.22899048  0.21634839    -0.89700
O112        O  0.14138783  0.21021142  0.27414496    -0.92600
C113        C  0.20339830  0.36779249  0.31298443     1.01200
C114        C  0.19149426  0.26662632  0.38459644     1.14100
C115        C  0.28687015  0.31299799  0.26254354     1.04900
O116        O  0.21160677  0.32569805  0.16629238    -0.94700
O117        O  0.19208955  0.25128454  0.15734861    -0.90500
O118        O  0.13281899  0.26210846  0.16525241    -0.83600
C119        C  0.15813705  0.24930026  0.14716391     1.11500
O120        O  0.26074419  0.18329234  0.29896900    -0.96700
Zr121      Zr  0.20470963  0.19888324  0.26752591     1.88900
O122        O  0.12316208  0.18363897  0.20769665    -0.73400
O123        O  0.27346935  0.26674057  0.17976034    -0.52600
O124        O  0.24946362  0.17568499  0.22693757    -0.97300
O125        O  0.19534473  0.15524807  0.31085617    -0.54500
O126        O  0.17019927  0.15743538  0.23579694    -0.73900
C127        C  0.14159811  0.15787563  0.21586576     0.98500
O128        O  0.07376115  0.23363787  0.18047758    -0.62700
O129        O  0.07313258  0.26743873  0.35303957    -0.57500
O130        O  0.06599176  0.24255715  0.25340374    -0.94200
O131        O  0.07449229  0.21029256  0.29958480    -0.92600
O132        O  0.10289577  0.35151147  0.31401643    -0.93000
O133        O  0.07660793  0.33782815  0.24364007    -0.91800
C134        C  0.05765976  0.21665590  0.27029108     1.17300
H135        H  0.15270563  0.31071716  0.33789620     0.33200
H136        H  0.14370042  0.30777625  0.19660873     0.44100
H137        H  0.12877239  0.18940204  0.27589612     0.37600
H138        H  0.26153714  0.24365047  0.25788519     0.34100
H139        H  0.13431378  0.39138981  0.23751605     0.25900
H140        H  0.29077430  0.26041060  0.19886874     0.31800
H141        H  0.24106826  0.15288891  0.22253252     0.37700
H142        H  0.10551546  0.37550563  0.31015569     0.32200
H143        H  0.08326919  0.28490451  0.36840436     0.31100
H144        H  0.10377365  0.18492051  0.35867199     0.32800
H145        H  0.17000199  0.14719707  0.30652686     0.31700
H146        H  0.07053527  0.31850675  0.22888648     0.35700
H147        H  0.06314270  0.21167694  0.18523083     0.28500
H148        H  0.28079359  0.32002472  0.34293057     0.32700
H149        H  0.26452689  0.20106875  0.31639410     0.35500
H150        H  0.05996803  0.27953344  0.33408860     0.28200
H151        H  0.05432127  0.24958056  0.18688128     0.41000
H152        H  0.23176295  0.32137408  0.14946877     0.31100
H153        H  0.15798646  0.37061484  0.21131786     0.38700
H154        H  0.19381889  0.16676365  0.33375043     0.30500
H155        H  0.26773412  0.24580440  0.16766867     0.30600
H156        H  0.28791527  0.28233761  0.34993064     0.30900
C157        C  0.09052728  0.03267198  0.16490036     0.03000
C158        C  0.06317942  0.03024069  0.13886025    -0.13200
C159        C  0.04944575  0.99967136  0.12838181     0.00500
C160        C  0.06160538  0.97093538  0.14664413    -0.11700
C161        C  0.09123817  0.97300509  0.17138462     0.03000
C162        C  0.10607217  0.00389477  0.17877639    -0.11100
H163        H  0.05139328  0.05229470  0.12726925     0.08600
H164        H  0.04894982  0.94739712  0.14107741     0.06100
H165        H  0.12886365  0.00558933  0.19714354     0.05900
Zr166      Zr  0.22261916  0.71804639  0.28455251     2.17500
O167        O  0.28690595  0.70093187  0.28187949    -0.51500
O168        O  0.20968016  0.67691638  0.32758005    -0.74700
O169        O  0.25302745  0.73285074  0.33766063    -0.81500
O170        O  0.17541675  0.65223656  0.23952362    -0.83200
O171        O  0.25600344  0.78872403  0.33727236    -0.78800
O172        O  0.23113633  0.67377801  0.24444229    -0.90500
O173        O  0.16199548  0.69715415  0.35904702    -0.76400
O174        O  0.19111304  0.75469395  0.32224741    -0.85900
O175        O  0.15991635  0.70033623  0.28212925    -0.85600
O176        O  0.23767820  0.77225227  0.26431086    -0.72400
O177        O  0.20650639  0.72068457  0.22358371    -0.84500
Zr178      Zr  0.12380875  0.79411521  0.23924965     2.26400
Zr179      Zr  0.20298111  0.80920514  0.30092640     2.06300
Zr180      Zr  0.14283806  0.70407049  0.22104242     2.10000
Zr181      Zr  0.12929200  0.73624008  0.32081642     1.78800
O182        O  0.15883336  0.67943479  0.16482443    -0.93300
O183        O  0.12587108  0.76134968  0.37893963    -0.41100
O184        O  0.10985293  0.73997303  0.26011562    -0.77800
O185        O  0.13970027  0.79139563  0.30042819    -0.96400
O186        O  0.18609417  0.81223146  0.24022723    -0.89700
O187        O  0.15646608  0.75822444  0.20107643    -0.92600
C188        C  0.18941804  0.67748134  0.35489065     1.01200
C189        C  0.20974421  0.64947721  0.24826581     1.14100
C190        C  0.26660868  0.75991722  0.34816470     1.04900
O191        O  0.18022942  0.83434931  0.35473656    -0.94700
O192        O  0.17794875  0.86021039  0.27095941    -0.90500
O193        O  0.11911700  0.84582528  0.26778495    -0.83600
C194        C  0.14401041  0.86701164  0.26297201     1.11500
O195        O  0.28057581  0.75362983  0.19441245    -0.96700
Zr196      Zr  0.21887900  0.77532603  0.20379144     1.88900
O197        O  0.13305037  0.82771601  0.18720603    -0.73400
O198        O  0.25130134  0.85074826  0.30365172    -0.52600
O199        O  0.25957923  0.82272457  0.19903368    -0.97300
O200        O  0.22878561  0.75285708  0.14515414    -0.54500
O201        O  0.18637317  0.80997317  0.16234953    -0.73900
C202        C  0.15630385  0.82642422  0.16192460     0.98500
O203        O  0.05968018  0.80711259  0.25218970    -0.62700
O204        O  0.09190901  0.66548333  0.22665852    -0.57500
O205        O  0.08264577  0.77972098  0.19403617    -0.94200
O206        O  0.09146252  0.72533051  0.18200686    -0.92600
O207        O  0.08865697  0.68925404  0.32943692    -0.93000
O208        O  0.06623286  0.75364082  0.33207792    -0.91800
C209        C  0.07548156  0.75367934  0.17697270     1.17300
H210        H  0.15548846  0.67836398  0.29078856     0.33200
H211        H  0.12470429  0.80594961  0.31436608     0.44100
H212        H  0.14841648  0.76029048  0.17690632     0.37600
H213        H  0.26377755  0.77630840  0.26665123     0.34100
H214        H  0.15186273  0.76418151  0.38633376     0.25900
H215        H  0.25491979  0.85514702  0.32907914     0.31800
H216        H  0.26915026  0.82612676  0.22322236     0.37700
H217        H  0.07380411  0.68810135  0.30752109     0.32200
H218        H  0.09952844  0.65030893  0.24583861     0.31100
H219        H  0.13510048  0.67145598  0.15515336     0.32800
H220        H  0.23485091  0.77208006  0.13014739     0.31700
H221        H  0.05327140  0.75105306  0.30924199     0.35700
H222        H  0.04659335  0.78574786  0.25139807     0.28500
H223        H  0.29138978  0.68812698  0.30374474     0.32700
H224        H  0.28547985  0.73939524  0.21515104     0.35500
H225        H  0.07171248  0.67862702  0.23696129     0.28200
H226        H  0.05947463  0.81297925  0.27748762     0.41000
H227        H  0.16223000  0.85106582  0.34655651     0.31100
H228        H  0.11691610  0.78404541  0.37467401     0.38700
H229        H  0.20408860  0.74578539  0.13701977     0.30500
H230        H  0.27403376  0.83926505  0.29627314     0.30600
H231        H  0.30137617  0.72137254  0.28487926     0.30900
Zr232      Zr  0.72817680  0.24557885  0.20099648     2.17500
O233        O  0.77672025  0.24966796  0.15704815    -0.51500
O234        O  0.73261751  0.18763792  0.18526711    -0.74700
O235        O  0.78710103  0.24404280  0.22910918    -0.81500
O236        O  0.65336434  0.24702354  0.13562971    -0.83200
O237        O  0.77609264  0.21754986  0.27904081    -0.78800
O238        O  0.71047898  0.26423122  0.14351880    -0.90500
O239        O  0.68809143  0.15998558  0.21494057    -0.76400
O240        O  0.71656073  0.21747108  0.25508829    -0.85900
O241        O  0.66580895  0.22649739  0.19892306    -0.85600
O242        O  0.74109499  0.28558697  0.24653455    -0.72400
O243        O  0.69093709  0.29367981  0.19105102    -0.84500
Zr244      Zr  0.62994839  0.28554562  0.28971318     2.26400
Zr245      Zr  0.72857822  0.25666889  0.30100706     2.06300
Zr246      Zr  0.62793335  0.27477466  0.18920046     2.10000
Zr247      Zr  0.65508179  0.19856206  0.25238019     1.78800
O248        O  0.62191618  0.31550947  0.14234908    -0.93300
O249        O  0.67773438  0.15518607  0.29141163    -0.41100
O250        O  0.61668655  0.24613228  0.24414722    -0.77800
O251        O  0.66612034  0.23646444  0.29954418    -0.96400
O252        O  0.69173251  0.30478428  0.29128430    -0.89700
O253        O  0.64095890  0.31399030  0.23533579    -0.92600
C254        C  0.71502919  0.16121541  0.19312073     1.01200
C255        C  0.68771438  0.24630618  0.12695923     1.14100
C256        C  0.79385899  0.22029296  0.24983395     1.04900
O257        O  0.73351674  0.22166118  0.35305609    -0.94700
O258        O  0.70535905  0.29094650  0.35101516    -0.90500
O259        O  0.64703776  0.27444302  0.34963884    -0.83600
C260        C  0.67245763  0.29123363  0.36389852     1.11500
O261        O  0.75489573  0.34897410  0.20148396    -0.96700
Zr262      Zr  0.70249199  0.33236684  0.23716736     1.88900
O263        O  0.62466059  0.34384530  0.30200930    -0.73400
O264        O  0.78734957  0.28034143  0.31872583    -0.52600
O265        O  0.74486858  0.36461712  0.27294907    -0.97300
O266        O  0.68485289  0.37237799  0.19211911    -0.54500
O267        O  0.66667157  0.37216975  0.26973242    -0.73900
C268        C  0.64014428  0.37056779  0.29184474     0.98500
O269        O  0.57749495  0.28771109  0.32953078    -0.62700
O270        O  0.57336713  0.24651902  0.16723889    -0.57500
O271        O  0.57193032  0.27844259  0.26099772    -0.94200
O272        O  0.57438933  0.30747880  0.21208040    -0.92600
O273        O  0.60881306  0.16817483  0.21916143    -0.93000
O274        O  0.60483248  0.18054082  0.29005329    -0.91800
C275        C  0.56068292  0.30281057  0.24298599     1.17300
H276        H  0.66226651  0.21009579  0.18095281     0.33200
H277        H  0.66017352  0.22506570  0.32114767     0.44100
H278        H  0.62616466  0.33360421  0.23300381     0.37600
H279        H  0.76588503  0.29419149  0.24665411     0.34100
H280        H  0.70485935  0.15590841  0.28901919     0.25900
H281        H  0.78219552  0.30408506  0.32171134     0.31800
H282        H  0.74685155  0.35232999  0.29545880     0.37700
H283        H  0.60212844  0.18283364  0.19925020     0.32200
H284        H  0.58281686  0.22591697  0.15677943     0.31100
H285        H  0.62062275  0.33683489  0.15480407     0.32800
H286        H  0.69660054  0.39319118  0.19967971     0.31700
H287        H  0.58645160  0.19851280  0.28859150     0.35700
H288        H  0.57731542  0.26639343  0.34226037     0.28500
H289        H  0.78997241  0.22839896  0.15803558     0.32700
H290        H  0.75175492  0.33686174  0.17907352     0.35500
H291        H  0.56018558  0.23930333  0.18869462     0.28200
H292        H  0.58370169  0.30439709  0.34754972     0.41000
H293        H  0.71968196  0.20149238  0.34688332     0.31100
H294        H  0.67307245  0.16328705  0.31554348     0.38700
H295        H  0.65820183  0.37612935  0.19567779     0.30500
H296        H  0.79148952  0.27200872  0.34297872     0.30600
H297        H  0.79439723  0.26617096  0.16612852     0.30900
Zr298      Zr  0.61430863  0.71975429  0.25243258     2.17500
O299        O  0.56597830  0.67992060  0.23718625    -0.51500
O300        O  0.60655442  0.70512787  0.31403427    -0.74700
O301        O  0.63974285  0.66604635  0.24287489    -0.81500
O302        O  0.55525589  0.78989255  0.27953821    -0.83200
O303        O  0.69639054  0.66829822  0.26405064    -0.78800
O304        O  0.55400359  0.74356456  0.24957241    -0.90500
O305        O  0.64790607  0.73471325  0.34636345    -0.76400
O306        O  0.67543941  0.72104355  0.27555054    -0.85900
O307        O  0.62227083  0.76947115  0.28561472    -0.85600
O308        O  0.65375611  0.71546695  0.20176481    -0.72400
O309        O  0.60063277  0.76448461  0.21270558    -0.84500
Zr310      Zr  0.70944889  0.80946145  0.21907342     2.26400
Zr311      Zr  0.71559371  0.71601918  0.22608525     2.06300
Zr312      Zr  0.60818695  0.81467397  0.24628585     2.10000
Zr313      Zr  0.68273525  0.77000276  0.30817794     1.78800
O314        O  0.55537540  0.83404044  0.21226086    -0.93300
O315        O  0.72692067  0.73835515  0.34296401    -0.41100
O316        O  0.67039685  0.81515240  0.26936976    -0.77800
O317        O  0.72387296  0.76556849  0.25989668    -0.96400
O318        O  0.70219019  0.76029430  0.18591246    -0.89700
O319        O  0.64807668  0.81028930  0.19574252    -0.92600
C320        C  0.62166296  0.71397740  0.34311871     1.01200
C321        C  0.54334539  0.76012788  0.27582564     1.14100
C322        C  0.66394815  0.65527141  0.26413029     1.04900
O323        O  0.77341186  0.69689063  0.25158848    -0.94700
O324        O  0.76702316  0.74232423  0.19229477    -0.90500
O325        O  0.77096476  0.78935652  0.22193118    -0.83600
C326        C  0.78275492  0.77032703  0.19821401     1.11500
O327        O  0.59466596  0.72346651  0.14034214    -0.96700
Zr328      Zr  0.64109476  0.76107293  0.16325781     1.88900
O329        O  0.71281868  0.82766998  0.15881704    -0.73400
O330        O  0.72127890  0.67193738  0.18321125    -0.52600
O331        O  0.66504312  0.72882759  0.11455420    -0.97300
O332        O  0.59309443  0.79171773  0.13209796    -0.54500
O333        O  0.67563911  0.79669547  0.12423069    -0.73900
C334        C  0.69999775  0.81909913  0.12878931     0.98500
O335        O  0.75543800  0.85306721  0.21511785    -0.62700
O336        O  0.59502498  0.85493292  0.29189181    -0.57500
O337        O  0.68888377  0.85831472  0.24747375    -0.94200
O338        O  0.63453345  0.86802221  0.22385279    -0.92600
O339        O  0.65518871  0.80677582  0.35118630    -0.93000
O340        O  0.73135331  0.80427339  0.33293006    -0.91800
C341        C  0.66846358  0.87651298  0.22849621     1.17300
H342        H  0.60714735  0.76990270  0.30640048     0.33200
H343        H  0.74802094  0.76586424  0.27075401     0.44100
H344        H  0.64445000  0.82840937  0.17959301     0.37600
H345        H  0.64940512  0.69549720  0.18864049     0.34100
H346        H  0.71957751  0.74188868  0.36775542     0.25900
H347        H  0.72139132  0.68336222  0.16011826     0.31800
H348        H  0.69189612  0.72757341  0.11900561     0.37700
H349        H  0.66536076  0.79940198  0.37415630     0.32200
H350        H  0.59010756  0.84159248  0.31324833     0.31100
H351        H  0.54600931  0.81418032  0.20013195     0.32800
H352        H  0.60031766  0.79080771  0.10699549     0.31700
H353        H  0.72299369  0.82717898  0.32884687     0.35700
H354        H  0.77120176  0.85082937  0.23636114     0.28500
H355        H  0.57749535  0.66169697  0.22401253     0.32700
H356        H  0.57905110  0.71811674  0.16088715     0.35500
H357        H  0.61901987  0.86557764  0.29679500     0.28200
H358        H  0.77155230  0.84762148  0.19501963     0.41000
H359        H  0.77128807  0.70200239  0.27698678     0.31100
H360        H  0.72071252  0.71505226  0.33822901     0.38700
H361        H  0.59672521  0.81501543  0.13877010     0.30500
H362        H  0.74681513  0.66382690  0.18626748     0.30600
H363        H  0.55038746  0.69077768  0.21909319     0.30900
C364        C  0.10036353  0.16124448  0.04177106     0.03000
C365        C  0.11540044  0.17077747  0.00982324    -0.13200
C366        C  0.09687426  0.16577614  0.97824352     0.00500
C367        C  0.06399624  0.14628446  0.97841987    -0.11700
C368        C  0.05044548  0.13233297  0.01059942     0.03000
C369        C  0.06825094  0.14155335  0.04237422    -0.11100
H370        H  0.13943141  0.18671509  0.01001392     0.08600
H371        H  0.04919971  0.14183641  0.95412555     0.06100
H372        H  0.05715819  0.13358028  0.06744021     0.05900
Zr373      Zr  0.12175536  0.27739475  0.81771110     2.17500
O374        O  0.07813159  0.25838051  0.86193684    -0.51500
O375        O  0.12221383  0.21833614  0.81707285    -0.74700
O376        O  0.06041144  0.28313167  0.79713990    -0.81500
O377        O  0.19651078  0.26664227  0.87738520    -0.83200
O378        O  0.06786144  0.26349665  0.74375205    -0.78800
O379        O  0.14058412  0.28784228  0.87677615    -0.90500
O380        O  0.15971558  0.19738146  0.77519104    -0.76400
O381        O  0.12777085  0.26097203  0.75768796    -0.85900
O382        O  0.18361387  0.25796606  0.81047112    -0.85600
O383        O  0.10321306  0.32589827  0.78496793    -0.72400
O384        O  0.15942435  0.32235240  0.83683673    -0.84500
Zr385      Zr  0.20825699  0.33991395  0.73810494     2.26400
Zr386      Zr  0.11142321  0.30884915  0.72453869     2.06300
Zr387      Zr  0.22196507  0.30293105  0.82879628     2.10000
Zr388      Zr  0.18995868  0.24481432  0.75000918     1.78800
O389        O  0.23979478  0.34310249  0.87311137    -0.93300
O390        O  0.16297294  0.21679946  0.69944488    -0.41100
O391        O  0.22763806  0.29043668  0.76727879    -0.77800
O392        O  0.17508269  0.29287605  0.71660618    -0.96400
O393        O  0.14809435  0.34980931  0.74735645    -0.89700
O394        O  0.20426027  0.35299471  0.79914742    -0.92600
C395        C  0.13652871  0.19438094  0.80026078     1.01200
C396        C  0.16319255  0.26712742  0.88940624     1.14100
C397        C  0.05181186  0.26226785  0.77415521     1.04900
O398        O  0.07586517  0.29173489  0.67331832    -0.94700
O399        O  0.14248762  0.32617074  0.66827019    -0.90500
O400        O  0.17704308  0.36631312  0.69025020    -0.83600
C401        C  0.16667702  0.34926016  0.66427175     1.11500
O402        O  0.09678862  0.37556542  0.84920613    -0.96700
Zr403      Zr  0.14222084  0.37006433  0.80278450     1.88900
O404        O  0.21284912  0.39773841  0.73613818    -0.73400
O405        O  0.06406313  0.35134178  0.72197231    -0.52600
O406        O  0.09093719  0.40522350  0.78514944    -0.97300
O407        O  0.16692228  0.40395267  0.85016443    -0.54500
O408        O  0.16816715  0.41758518  0.77189795    -0.73900
C409        C  0.19408985  0.42099540  0.74935182     0.98500
O410        O  0.25484385  0.33162199  0.69318082    -0.62700
O411        O  0.27399538  0.27323310  0.85442837    -0.57500
O412        O  0.26229692  0.35974331  0.76557620    -0.94200
O413        O  0.27992174  0.31421127  0.79349880    -0.92600
O414        O  0.23932738  0.20913879  0.77130198    -0.93000
O415        O  0.23622400  0.23457418  0.70514455    -0.91800
C416        C  0.28695923  0.33906437  0.77293888     1.17300
H417        H  0.18883460  0.23828943  0.82395642     0.33200
H418        H  0.18181465  0.28776001  0.69270598     0.44100
H419        H  0.21908902  0.37118032  0.80716474     0.37600
H420        H  0.07876523  0.33455555  0.78881145     0.34100
H421        H  0.16908435  0.19326546  0.70301748     0.25900
H422        H  0.06497458  0.35992839  0.69754763     0.31800
H423        H  0.09394851  0.40856311  0.75947279     0.37700
H424        H  0.26102036  0.22376298  0.77349724     0.32200
H425        H  0.27266544  0.27754236  0.88004432     0.31100
H426        H  0.23174318  0.33325154  0.89569590     0.32800
H427        H  0.15040821  0.42333776  0.85100212     0.31700
H428        H  0.24973097  0.25563779  0.70299517     0.35700
H429        H  0.24504020  0.31415176  0.67772306     0.28500
H430        H  0.06658885  0.23810333  0.85276244     0.32700
H431        H  0.10500485  0.36022706  0.86799869     0.35500
H432        H  0.26742033  0.24969724  0.85198650     0.28200
H433        H  0.25441806  0.35187355  0.67858776     0.41000
H434        H  0.08850129  0.27164465  0.66496034     0.31100
H435        H  0.13604046  0.21805253  0.70316344     0.38700
H436        H  0.19054805  0.41282854  0.84140061     0.30500
H437        H  0.04060458  0.33898163  0.72316908     0.30600
H438        H  0.05821158  0.27495765  0.86290492     0.30900
Zr439      Zr  0.16339519  0.80622691  0.79578586     2.17500
O440        O  0.11341135  0.80320844  0.83824962    -0.51500
O441        O  0.14869433  0.86345475  0.80534049    -0.74700
O442        O  0.18801759  0.79906846  0.85346377    -0.81500
O443        O  0.09797269  0.80962888  0.72062856    -0.83200
O444        O  0.24057467  0.82663087  0.85108625    -0.78800
O445        O  0.10632196  0.78612112  0.77244491    -0.90500
O446        O  0.18188311  0.89545592  0.76785660    -0.76400
O447        O  0.21978329  0.83571434  0.79047140    -0.85900
O448        O  0.16390064  0.83147837  0.73874047    -0.85600
O449        O  0.21108467  0.76579928  0.80690859    -0.72400
O450        O  0.15503430  0.76188465  0.75518868    -0.84500
Zr451      Zr  0.25919814  0.77675476  0.70153290     2.26400
Zr452      Zr  0.26789800  0.79612628  0.79998740     2.06300
Zr453      Zr  0.15601754  0.78711650  0.69735393     2.10000
Zr454      Zr  0.22046705  0.85994857  0.73353688     1.78800
O455        O  0.10388003  0.75311982  0.67984747    -0.93300
O456        O  0.26436412  0.89638937  0.76245971    -0.41100
O457        O  0.21267681  0.81706204  0.69092159    -0.77800
O458        O  0.26899126  0.82123953  0.74205038    -0.96400
O459        O  0.25876757  0.75254392  0.75881572    -0.89700
O460        O  0.20313484  0.74686820  0.70822234    -0.92600
C461        C  0.15843439  0.89128892  0.79249143     1.01200
C462        C  0.08819241  0.80566770  0.75279548     1.14100
C463        C  0.20920263  0.82089611  0.86579563     1.04900
O464        O  0.31924599  0.83430018  0.80575867    -0.94700
O465        O  0.31670810  0.75817452  0.77671081    -0.90500
O466        O  0.32110143  0.77978975  0.72331303    -0.83600
C467        C  0.33093057  0.75808359  0.74546007     1.11500
O468        O  0.15946503  0.69837240  0.80535540    -0.96700
Zr469      Zr  0.20353753  0.72304555  0.76499430     1.88900
O470        O  0.27764514  0.72033138  0.69338921    -0.73400
O471        O  0.29249688  0.77114063  0.85362462    -0.52600
O472        O  0.23361360  0.69114087  0.81139802    -0.97300
O473        O  0.16703514  0.68067132  0.73585987    -0.54500
O474        O  0.24918293  0.69003631  0.73569593    -0.73900
C475        C  0.27141848  0.69334432  0.70982388     0.98500
O476        O  0.29741639  0.80039953  0.65517879    -0.62700
O477        O  0.14287389  0.82530981  0.64932042    -0.57500
O478        O  0.23903807  0.76596245  0.64247758    -0.94200
O479        O  0.17749868  0.75655344  0.64486660    -0.92600
O480        O  0.18881052  0.89729562  0.69321797    -0.93000
O481        O  0.26104422  0.88451104  0.68985358    -0.91800
C482        C  0.20944700  0.75318255  0.63039692     1.17300
H483        H  0.14465416  0.84771925  0.73627569     0.33200
H484        H  0.29211483  0.83224649  0.73794475     0.44100
H485        H  0.20202425  0.72821279  0.69264823     0.37600
H486        H  0.21093070  0.75409105  0.82912185     0.34100
H487        H  0.25578509  0.91886407  0.75642899     0.25900
H488        H  0.30523615  0.78935130  0.86593807     0.31800
H489        H  0.25765923  0.70214328  0.81500029     0.37700
H490        H  0.17422922  0.88275524  0.67763576     0.32200
H491        H  0.12867683  0.81222657  0.63200078     0.31100
H492        H  0.10291390  0.75484284  0.65382702     0.32800
H493        H  0.18305232  0.67156445  0.71725781     0.31700
H494        H  0.25977298  0.86948761  0.66942457     0.35700
H495        H  0.28135270  0.81657540  0.64298228     0.28500
H496        H  0.11566178  0.82308873  0.85305733     0.32700
H497        H  0.14550206  0.71724152  0.81491457     0.35500
H498        H  0.12468098  0.84087223  0.65917484     0.28200
H499        H  0.31587201  0.81419750  0.66744749     0.41000
H500        H  0.33981941  0.82355739  0.79322980     0.31100
H501        H  0.25922361  0.89402847  0.78794204     0.38700
H502        H  0.14773702  0.69299351  0.72282201     0.30500
H503        H  0.27065201  0.76642574  0.86830139     0.30600
H504        H  0.11919704  0.78439221  0.85397884     0.30900
Zr505      Zr  0.73294080  0.21667030  0.77858337     2.17500
O506        O  0.77350616  0.20993903  0.82972332    -0.51500
O507        O  0.76116570  0.16439049  0.76569163    -0.74700
O508        O  0.70835007  0.19135514  0.82952204    -0.81500
O509        O  0.80890104  0.24594099  0.72453959    -0.83200
O510        O  0.64608642  0.18850627  0.82565669    -0.78800
O511        O  0.78378388  0.25359607  0.77603886    -0.90500
O512        O  0.72028638  0.13949428  0.72946609    -0.76400
O513        O  0.68183216  0.18740524  0.75508466    -0.85900
O514        O  0.74600539  0.21186344  0.71713363    -0.85600
O515        O  0.67942528  0.24728891  0.79568356    -0.72400
O516        O  0.73994112  0.27226983  0.75834328    -0.84500
Zr517      Zr  0.64698486  0.26923003  0.68723590     2.26400
Zr518      Zr  0.62810315  0.21857870  0.76993606     2.06300
Zr519      Zr  0.75206555  0.26768526  0.69586776     2.10000
Zr520      Zr  0.69464006  0.18337982  0.69380453     1.78800
O521        O  0.79541845  0.31327860  0.69841215    -0.93300
O522        O  0.65113380  0.13858109  0.68418282    -0.41100
O523        O  0.70053520  0.23823880  0.67110288    -0.77800
O524        O  0.63985579  0.21291795  0.70769491    -0.96400
O525        O  0.63458098  0.27399115  0.74866573    -0.89700
O526        O  0.69803773  0.29850528  0.71200466    -0.92600
C527        C  0.74626281  0.13877445  0.75238945     1.01200
C528        C  0.81047547  0.24292893  0.75818485     1.14100
C529        C  0.67730321  0.18250815  0.84128367     1.04900
O530        O  0.59175518  0.16953985  0.75787869    -0.94700
O531        O  0.57394805  0.24908669  0.74464555    -0.90500
O532        O  0.58768053  0.24451658  0.68797728    -0.83600
C533        C  0.56590182  0.25373594  0.71175447     1.11500
O534        O  0.71101716  0.30747218  0.83254022    -0.96700
Zr535      Zr  0.68560330  0.30222285  0.77329687     1.88900
O536        O  0.62897533  0.32632316  0.69389697    -0.73400
O537        O  0.58367938  0.23035324  0.81606445    -0.52600
O538        O  0.63679896  0.32004153  0.81268994    -0.97300
O539        O  0.72688188  0.34914880  0.77909101    -0.54500
O540        O  0.65561878  0.34742407  0.74318415    -0.73900
C541        C  0.63654825  0.35002806  0.71483660     0.98500
O542        O  0.60888861  0.28629819  0.63731053    -0.62700
O543        O  0.78317799  0.24573583  0.64438601    -0.57500
O544        O  0.68407824  0.27294831  0.63550444    -0.94200
O545        O  0.73011896  0.30590466  0.64849833    -1.03600
O546        O  0.74426107  0.16050257  0.65858777    -0.93000
O547        O  0.67462335  0.17926185  0.63263018    -0.91800
C548        C  0.70082152  0.29996969  0.63039480     1.17300
H549        H  0.76807959  0.19934218  0.71258548     0.33200
H550        H  0.62089439  0.19965934  0.69686975     0.44100
H551        H  0.70023346  0.32045255  0.70249230     0.37600
H552        H  0.67709713  0.24825860  0.82099090     0.34100
H553        H  0.66544301  0.11820695  0.68851800     0.25900
H554        H  0.57646895  0.20860061  0.82563944     0.31800
H555        H  0.61406799  0.30964594  0.80349720     0.37700
H556        H  0.73972176  0.13647325  0.65863914     0.32200
H557        H  0.80488112  0.26016816  0.64126058     0.31100
H558        H  0.79699608  0.31884252  0.72375386     0.32800
H559        H  0.71146524  0.36677763  0.78931224     0.31700
H560        H  0.65331672  0.19440641  0.63074930     0.35700
H561        H  0.59871114  0.26599269  0.62673207     0.28500
H562        H  0.77435757  0.18629274  0.83616294     0.32700
H563        H  0.73441083  0.29495544  0.83194168     0.35500
H564        H  0.79359426  0.22446333  0.65248260     0.28200
H565        H  0.58754590  0.29829993  0.64698319     0.41000
H566        H  0.60205031  0.15256888  0.77393633     0.31100
H567        H  0.63389654  0.13978828  0.70424856     0.38700
H568        H  0.73150545  0.35647366  0.75459827     0.30500
H569        H  0.59826773  0.24075892  0.83510775     0.30600
H570        H  0.76221219  0.22150571  0.84990652     0.30900
Zr571      Zr  0.71260670  0.78822954  0.81317976     2.17500
O572        O  0.71126824  0.82144161  0.86660441    -0.51500
O573        O  0.76759971  0.82156293  0.80606524    -0.74700
O574        O  0.73421570  0.75937190  0.86462518    -0.81500
O575        O  0.67734995  0.85359222  0.75625835    -0.83200
O576        O  0.76942012  0.71871947  0.84349806    -0.78800
O577        O  0.67361344  0.83589835  0.81145878    -0.90500
O578        O  0.79680244  0.80733105  0.75579383    -0.76400
O579        O  0.75413032  0.74880749  0.78935168    -0.85900
O580        O  0.71998124  0.80213401  0.75226879    -0.85600
O581        O  0.68484299  0.73513649  0.82420972    -0.72400
O582        O  0.65144167  0.78710142  0.78870287    -0.84500
Zr583      Zr  0.67599930  0.70987988  0.71346737     2.26400
Zr584      Zr  0.72652073  0.69538406  0.79878774     2.06300
Zr585      Zr  0.65896310  0.80103477  0.72726779     2.10000
Zr586      Zr  0.76191838  0.76340896  0.72919053     1.78800
O587        O  0.59916433  0.82623583  0.73743854    -0.93300
O588        O  0.82197109  0.73862996  0.74071393    -0.41100
O589        O  0.70212558  0.76261209  0.70202208    -0.77800
O590        O  0.73666823  0.70992998  0.73800730    -0.96400
O591        O  0.66665598  0.69499114  0.77322801    -0.89700
O592        O  0.63275085  0.74794856  0.73710500    -0.92600
C593        C  0.79330498  0.82515287  0.78328909     1.01200
C594        C  0.68225640  0.85830488  0.78958147     1.14100
C595        C  0.76371614  0.74258960  0.86511401     1.04900
O596        O  0.77828247  0.65917747  0.78652413    -0.94700
O597        O  0.69444606  0.64510920  0.77367645    -0.90500
O598        O  0.70306897  0.65650684  0.71722474    -0.83600
C599        C  0.69121139  0.63712294  0.74071270     1.11500
O600        O  0.60150039  0.75878242  0.85054687    -0.96700
Zr601      Zr  0.62528639  0.73352634  0.79721816     1.88900
O602        O  0.62343856  0.67529416  0.71955390    -0.73400
O603        O  0.71828659  0.66400109  0.85299514    -0.52600
O604        O  0.61513601  0.69320960  0.84378947    -0.97300
O605        O  0.56397672  0.75646495  0.78769659    -0.54500
O606        O  0.59170075  0.68930593  0.76854117    -0.73900
C607        C  0.59638952  0.67215922  0.74056001     0.98500
O608        O  0.69361260  0.69048231  0.65508382    -0.62700
O609        O  0.66877995  0.83933755  0.67869635    -0.57500
O610        O  0.63611469  0.72695295  0.66753155    -0.94200
O611        O  0.62724777  0.78233096  0.67209125    -0.92600
O612        O  0.77462671  0.80234380  0.68183724    -0.93000
O613        O  0.78644627  0.73717854  0.67672530    -0.91800
C614        C  0.62257977  0.75411327  0.65680710     1.17300
H615        H  0.73073313  0.82353002  0.74857371     0.33200
H616        H  0.75278312  0.69419035  0.72688761     0.44100
H617        H  0.60902180  0.74617040  0.72576211     0.37600
H618        H  0.68121347  0.73049913  0.84892220     0.34100
H619        H  0.83960935  0.75719390  0.74105645     0.25900
H620        H  0.69313094  0.66956150  0.86091866     0.31800
H621        H  0.62731871  0.67295037  0.83529788     0.37700
H622        H  0.75909656  0.82171804  0.68709315     0.32200
H623        H  0.65614563  0.85982010  0.68588243     0.31100
H624        H  0.59337165  0.83796885  0.71517097     0.32800
H625        H  0.55591374  0.74824266  0.76438300     0.31700
H626        H  0.76552851  0.73669926  0.65989458     0.35700
H627        H  0.69721936  0.71062222  0.64073418     0.28500
H628        H  0.73660159  0.82114007  0.87638949     0.32700
H629        H  0.62368362  0.76458897  0.86447353     0.35500
H630        H  0.69531719  0.84476351  0.67990432     0.28200
H631        H  0.71881419  0.68152234  0.65794234     0.41000
H632        H  0.77051186  0.63738738  0.79557859     0.31100
H633        H  0.82094731  0.73092077  0.76546910     0.38700
H634        H  0.56819355  0.78029239  0.78396208     0.30500
H635        H  0.71654772  0.64079981  0.84529577     0.30600
H636        H  0.69614344  0.80902501  0.88374668     0.30900
C637        C  0.46576584  0.61344412  0.69589523     0.03000
C638        C  0.45777169  0.59532000  0.66569337    -0.13200
C639        C  0.42615630  0.60181167  0.64546712     0.00500
C640        C  0.40115065  0.62642445  0.65709191    -0.11700
C641        C  0.40778176  0.64314035  0.68953431     0.03000
C642        C  0.44038652  0.63651683  0.70791893    -0.11100
H643        H  0.47796959  0.57776012  0.65630873     0.08600
H644        H  0.37706210  0.63226991  0.64140088     0.06100
H645        H  0.44777878  0.65202333  0.73001130     0.05900
C646        C  0.26737846  0.51314350  0.66692160     0.03000
C647        C  0.28790578  0.50033479  0.63875502    -0.13200
C648        C  0.31338415  0.52074609  0.62151967     0.00500
C649        C  0.31832562  0.55335024  0.63266976    -0.11700
C650        C  0.29803570  0.56570474  0.66077589     0.03000
C651        C  0.27175679  0.54582569  0.67685889    -0.11100
H652        H  0.28549063  0.47462176  0.63164970     0.08600
H653        H  0.33881576  0.56880534  0.62011628     0.06100
H654        H  0.25531155  0.55544998  0.69826558     0.05900
C655        C  0.46118974  0.34613313  0.65394470     0.03000
C656        C  0.46263840  0.36887104  0.62545123    -0.13200
C657        C  0.43172464  0.38922477  0.61747644     0.00500
C658        C  0.39970642  0.38589822  0.63910505    -0.11700
C659        C  0.39809177  0.36178143  0.66643640     0.03000
C660        C  0.42880988  0.34233502  0.67266362    -0.11100
H661        H  0.48798559  0.37181980  0.61087438     0.08600
H662        H  0.37632079  0.40196277  0.63466362     0.06100
H663        H  0.42824944  0.32454326  0.69409528     0.05900
C664        C  0.58710342  0.47886338  0.67265639     0.03000
C665        C  0.60150260  0.50666385  0.68955979    -0.13200
C666        C  0.59431438  0.53846542  0.67701204     0.00500
C667        C  0.57035106  0.54233228  0.64727814    -0.11700
C668        C  0.55402407  0.51416800  0.63112850     0.03000
C669        C  0.56351264  0.48290709  0.64368447    -0.11100
H670        H  0.61995267  0.50348394  0.71188290     0.08600
H671        H  0.56441894  0.56669580  0.63707932     0.06100
H672        H  0.55299583  0.46148636  0.63002787     0.05900
C673        C  0.46763391  0.39266793  0.32242056     0.03000
C674        C  0.43319515  0.38776957  0.30705073    -0.13200
C675        C  0.40072118  0.39376628  0.32532263     0.00500
C676        C  0.40240585  0.41094882  0.35769787    -0.11700
C677        C  0.43692748  0.42045263  0.37241893     0.03000
C678        C  0.46973396  0.40975206  0.35511763    -0.11100
H679        H  0.43162998  0.37429755  0.28240682     0.08600
H680        H  0.37721163  0.41606954  0.37181576     0.06100
H681        H  0.49634255  0.41403544  0.36727122     0.05900
C682        C  0.59489535  0.49364127  0.35455302     0.03000
C683        C  0.61382034  0.52202344  0.34364875    -0.13200
C684        C  0.60446173  0.55329133  0.35629302     0.00500
C685        C  0.57677634  0.55579845  0.38244262    -0.11700
C686        C  0.55838806  0.52731478  0.39471861     0.03000
C687        C  0.56691866  0.49673111  0.37980597    -0.11100
H688        H  0.63518779  0.52000239  0.32396705     0.08600
H689        H  0.56912251  0.57965806  0.39265010     0.06100
H690        H  0.55091272  0.47547442  0.38753818     0.05900
C691        C  0.46039856  0.68826289  0.38271021     0.03000
C692        C  0.45952965  0.65528293  0.39551462    -0.13200
C693        C  0.42772754  0.64308413  0.41320933     0.00500
C694        C  0.39547926  0.66314807  0.41314552    -0.11700
C695        C  0.39598169  0.69567171  0.39907734     0.03000
C696        C  0.42991955  0.70832203  0.38829672    -0.11100
H697        H  0.48362839  0.63980567  0.39282505     0.08600
H698        H  0.37022765  0.65292340  0.42340493     0.06100
H699        H  0.43179885  0.73392073  0.38048963     0.05900
C700        C  0.26896105  0.49063550  0.35266028     0.03000
C701        C  0.25662384  0.51895454  0.33548758    -0.13200
C702        C  0.27249997  0.54960314  0.34185564     0.00500
C703        C  0.30133408  0.55184617  0.36749610    -0.11700
C704        C  0.31245959  0.52323132  0.38687513     0.03000
C705        C  0.29597484  0.49298683  0.37890765    -0.11100
H706        H  0.23455442  0.51701567  0.31625017     0.08600
H707        H  0.31403916  0.57539534  0.37293923     0.06100
H708        H  0.30510643  0.47090107  0.39253141     0.05900
C709        C  0.56942426  0.67067076  0.47738649     0.03000
C710        C  0.55160285  0.64089931  0.48407509    -0.13200
C711        C  0.53964003  0.63305137  0.51805622     0.00500
C712        C  0.54673127  0.65510439  0.54615480    -0.11700
C713        C  0.56625873  0.68475664  0.53983812     0.03000
C714        C  0.57600729  0.69244581  0.50514482    -0.11100
H715        H  0.54492914  0.62462724  0.46237594     0.08600
H716        H  0.53761923  0.64900614  0.57250934     0.06100
H717        H  0.58935213  0.71571265  0.49966751     0.05900
C718        C  0.61632935  0.38105884  0.47020526     0.03000
C719        C  0.58200422  0.39783859  0.47163651    -0.13200
C720        C  0.56959384  0.41229969  0.50350940     0.00500
C721        C  0.58990924  0.40545946  0.53489261    -0.11700
C722        C  0.62305549  0.38698251  0.53365386     0.03000
C723        C  0.63712179  0.37781727  0.50094688    -0.11100
H724        H  0.56492205  0.39951018  0.44835352     0.08600
H725        H  0.57916296  0.41315649  0.56012079     0.06100
H726        H  0.66223028  0.36329655  0.50018566     0.05900
C727        C  0.24047417  0.62151051  0.48198071     0.03000
C728        C  0.23072100  0.64438811  0.50760027    -0.13200
C729        C  0.25294464  0.64949567  0.53714132     0.00500
C730        C  0.28631799  0.63173570  0.54089713    -0.11700
C731        C  0.29524240  0.60710608  0.51617151     0.03000
C732        C  0.27163191  0.60188682  0.48735204    -0.11100
H733        H  0.20744535  0.66061343  0.50317991     0.08600
H734        H  0.30468972  0.63673429  0.56273879     0.06100
H735        H  0.27912262  0.58413644  0.46733777     0.05900
C736        C  0.26896484  0.35364786  0.48219907     0.03000
C737        C  0.30038813  0.37444714  0.47831508    -0.13200
C738        C  0.31342890  0.39377310  0.50724565     0.00500
C739        C  0.29440654  0.39090201  0.54001481    -0.11700
C740        C  0.26387027  0.36929179  0.54405247     0.03000
C741        C  0.25191650  0.35155919  0.51483545    -0.11100
H742        H  0.31336298  0.37673468  0.45280563     0.08600
H743        H  0.30337454  0.40557041  0.56222022     0.06100
H744        H  0.22779573  0.33598229  0.51721769     0.05900
O745        O  0.84083923  0.94777890  0.98859821    -0.86600
O746        O  0.04704676  0.97235709  0.00025855    -0.86800
O747        O  0.95436356  0.93058371  0.92858961    -0.88500
O748        O  0.94434432  0.90903213  0.04112881    -0.87200
O749        O  0.93102524  0.93969769  0.09027209    -0.86800
O750        O  0.94826343  0.97698901  0.89430175    -0.88200
O751        O  0.00969679  0.92769991  0.99023110    -0.86700
O752        O  0.89021577  0.91344804  0.97925285    -0.86300
Zr753      Zr  0.94489999  0.94665633  0.99070670     2.84300
O754        O  0.97423283  0.97731881  0.03511305    -1.08200
O755        O  0.90326208  0.98100703  0.96027708    -1.09000
C756        C  0.85537348  0.91920705  0.98189625     1.06500
C757        C  0.04162625  0.94155858  0.99417474     1.06400
C758        C  0.95385308  0.94591177  0.89853886     1.09400
C759        C  0.93721417  0.91173027  0.07430943     1.07200
H760        H  0.99509113  0.98002050  0.94891787     0.32700
O761        O  0.97727188  0.98951565  0.96466607    -1.29200
H762        H  0.88618791  0.95304543  0.03987663     0.32400
O763        O  0.90055279  0.97025515  0.02897767    -1.30900
O764        O  0.03413935  0.07559344  0.01187405    -0.86600
O765        O  0.82311135  0.05737146  0.99838735    -0.88100
O766        O  0.99561576  0.03288824  0.90836876    -0.86700
O767        O  0.98809199  0.99370734  0.10652275    -0.86800
O768        O  0.86755019  0.99445853  0.09842831    -0.86500
O769        O  0.87789137  0.01197946  0.90043187    -0.86300
O770        O  0.92999210  0.11401702  0.95519990    -0.86600
O771        O  0.92700556  0.09679055  0.07664647    -0.86100
O772        O  0.93204199  0.07811941  0.90858514    -0.87200
O773        O  0.92948248  0.04989803  0.11134453    -0.86300
O774        O  0.03905518  0.02826416  0.95252882    -0.86700
O775        O  0.83216371  0.99898171  0.93944965    -0.86500
O776        O  0.82592870  0.99677503  0.05264059    -0.86100
O777        O  0.03347815  0.01025674  0.06839798    -0.86500
O778        O  0.98633653  0.11269267  0.01191668    -0.86800
O779        O  0.86131003  0.10108639  0.01135178    -0.88100
Zr780      Zr  0.00774081  0.01998278  0.00847746     2.83100
Zr781      Zr  0.86018454  0.00550354  0.99785029     2.83500
Zr782      Zr  0.93580177  0.02293477  0.93295823     2.84100
Zr783      Zr  0.93033367  0.00010561  0.07346187     2.83400
Zr784      Zr  0.92655189  0.08066503  0.01247737     2.84200
O785        O  0.89309521  0.03666062  0.03978326    -1.08700
O786        O  0.96782896  0.05372963  0.97550550    -1.08200
C787        C  0.02144516  0.10537491  0.01130710     1.06400
C788        C  0.82896136  0.08851927  0.00445066     1.09100
C789        C  0.02881607  0.03236564  0.92017393     1.06600
C790        C  0.02200329  0.00009040  0.09898692     1.07000
C791        C  0.83423023  0.99431957  0.08574054     1.06600
C792        C  0.84468246  0.00251158  0.90788521     1.06100
C793        C  0.93173787  0.10744622  0.92134175     1.06500
C794        C  0.92871900  0.08172457  0.10720130     1.06000
H795        H  0.87761291  0.06201383  0.95623885     0.32700
O796        O  0.89370611  0.04838971  0.97043052    -1.29800
H797        H  0.97823515  0.05564567  0.06325219     0.32700
O798        O  0.96427280  0.04357735  0.04586430    -1.31200
O799        O  0.41957820  0.59712252  0.58228371    -0.86600
O800        O  0.43796183  0.41083095  0.55702324    -0.86800
O801        O  0.37248128  0.50495989  0.60589974    -0.88500
O802        O  0.49263814  0.50775170  0.61018794    -0.87200
O803        O  0.53763889  0.51991496  0.56994820    -0.86800
O804        O  0.32793595  0.50767987  0.56263371    -0.88200
O805        O  0.43204195  0.44642704  0.60365650    -0.86700
O806        O  0.42689457  0.55083933  0.61651579    -0.86300
Zr807      Zr  0.43288615  0.50237237  0.57928162     2.84300
O808        O  0.47317136  0.47624148  0.54017318    -1.08200
O809        O  0.39228243  0.53593446  0.54728708    -1.09000
C810        C  0.42248565  0.58220634  0.61248893     1.06500
C811        C  0.43429972  0.41708961  0.59073340     1.06400
C812        C  0.33906770  0.50872248  0.59501123     1.09400
C813        C  0.52625759  0.51512405  0.60188903     1.07200
H814        H  0.38384733  0.45558975  0.55151135     0.32700
O815        O  0.39852370  0.47119070  0.53846937    -1.29200
H816        H  0.47936733  0.55671855  0.56717954     0.32400
O817        O  0.46595955  0.54360149  0.55030245    -1.30900
O818        O  0.43906620  0.42669142  0.43620946    -0.86600
O819        O  0.42333729  0.61478781  0.46814209    -0.88100
O820        O  0.33075759  0.45044228  0.50479548    -0.86700
O821        O  0.54293820  0.46596408  0.50898235    -0.86800
O822        O  0.52964470  0.57527404  0.51532638    -0.86500
O823        O  0.32281694  0.55535670  0.51173337    -0.86300
O824        O  0.37497563  0.52843222  0.40649758    -0.86600
O825        O  0.49529510  0.52877910  0.41080070    -0.86100
O826        O  0.33068338  0.51349311  0.44648854    -0.87200
O827        O  0.53909950  0.52522196  0.45462971    -0.86300
O828        O  0.37763424  0.41270034  0.49980273    -0.86700
O829        O  0.36054448  0.59936955  0.52342773    -0.86500
O830        O  0.48101314  0.61015876  0.52610060    -0.86100
O831        O  0.50349690  0.42238356  0.49945592    -0.86500
O832        O  0.43646334  0.47307790  0.40087481    -0.86800
O833        O  0.43386849  0.58309551  0.41917041    -0.88100
Zr834      Zr  0.43854107  0.44377103  0.49984996     2.83100
Zr835      Zr  0.42442026  0.57849139  0.52022303     2.83500
Zr836      Zr  0.35890512  0.50557688  0.50555691     2.84100
Zr837      Zr  0.50724506  0.51800213  0.51145756     2.83400
Zr838      Zr  0.43426149  0.52332899  0.43798742     2.84200
O839        O  0.46642398  0.55339212  0.48098065    -1.08700
O840        O  0.40064485  0.48077686  0.46691348    -1.08200
C841        C  0.43797984  0.44133465  0.40545854     1.06400
C842        C  0.42847572  0.61141275  0.43459305     1.09100
C843        C  0.34271995  0.42044458  0.50304674     1.06600
C844        C  0.53633373  0.43486804  0.50402452     1.07000
C845        C  0.51548845  0.60405069  0.52135787     1.06600
C846        C  0.32852505  0.58607347  0.51825465     1.06100
C847        C  0.34117004  0.52270777  0.41526554     1.06500
C848        C  0.52905725  0.52819873  0.42192688     1.06000
H849        H  0.37630085  0.56206589  0.46476599     0.32700
O850        O  0.39265311  0.54747894  0.47750879    -1.29800
H851        H  0.48906760  0.47621774  0.45494243     0.32700
O852        O  0.47222252  0.48670491  0.47101096    -1.31200
C853        C  0.60250836  0.75028806  0.62329481    -0.05600
C854        C  0.62489645  0.74387867  0.59423855    -0.33000
C855        C  0.61367419  0.72223077  0.56780329     0.36200
C856        C  0.57805603  0.70796606  0.56840107    -0.06000
C857        C  0.55428199  0.71663787  0.59601697    -0.32900
C858        C  0.56641006  0.73734822  0.62346354     0.36100
H859        H  0.65330254  0.75211835  0.59443873     0.16500
O860        O  0.63909527  0.71320160  0.54301765    -0.60400
H861        H  0.52676976  0.70641284  0.59702547     0.16500
O862        O  0.54417247  0.74197056  0.65210240    -0.60500
H863        H  0.53405171  0.76449951  0.64922013     0.43500
H864        H  0.65114807  0.69318559  0.55271400     0.43400
C865        C  0.66875197  0.60844613  0.72727024    -0.05600
C866        C  0.63783998  0.59645461  0.74554519    -0.33000
C867        C  0.61234764  0.57485545  0.72908250     0.36200
C868        C  0.61651798  0.56573474  0.69331164    -0.06000
C869        C  0.64770216  0.57708565  0.67550465    -0.32900
C870        C  0.67373902  0.59747921  0.69210279     0.36100
H871        H  0.63260911  0.60472723  0.77214818     0.16500
O872        O  0.58270982  0.56355906  0.74781670    -0.60400
H873        H  0.65272579  0.56900562  0.64878074     0.16500
O874        O  0.70416998  0.60678990  0.67328676    -0.60500
H875        H  0.72377779  0.59108801  0.68043640     0.43500
H876        H  0.59282990  0.54674384  0.76422152     0.43400
C877        C  0.56795215  0.64826203  0.73044610    -0.05600
C878        C  0.54338479  0.63617197  0.75576774    -0.33000
C879        C  0.51133240  0.61979871  0.74524199     0.36200
C880        C  0.50388273  0.61566190  0.70907669    -0.06000
C881        C  0.53117730  0.62321031  0.68440698    -0.32900
C882        C  0.56289592  0.63966455  0.69469259     0.36100
H883        H  0.54785942  0.64110906  0.78349785     0.16500
O884        O  0.48636432  0.60959675  0.77005098    -0.60400
H885        H  0.52610549  0.62006193  0.65645461     0.16500
O886        O  0.58699444  0.64965285  0.66903076    -0.60500
H887        H  0.57773042  0.67137783  0.66089338     0.43500
H888        H  0.47782534  0.62981787  0.78209160     0.43400
C889        C  0.68260562  0.32447026  0.60605499    -0.05600
C890        C  0.65461218  0.31271945  0.58361969    -0.33000
C891        C  0.63178189  0.33394423  0.56450943     0.36200
C892        C  0.63847178  0.36803035  0.56413023    -0.06000
C893        C  0.66693883  0.38037754  0.58574306    -0.32900
C894        C  0.68835415  0.35893177  0.60730850     0.36100
H895        H  0.64957389  0.28653590  0.58135076     0.16500
O896        O  0.60436592  0.32078082  0.54390511    -0.60400
H897        H  0.67319848  0.40643189  0.58522786     0.16500
O898        O  0.71430417  0.37190074  0.62963934    -0.60500
H899        H  0.73478279  0.37911046  0.61425580     0.43500
H900        H  0.58181776  0.32202813  0.55847127     0.43400
C901        C  0.53498680  0.27490532  0.69934792    -0.05600
C902        C  0.52551562  0.30320619  0.71819962    -0.33000
C903        C  0.50392244  0.32806043  0.70245301     0.36200
C904        C  0.49212822  0.32532121  0.66689243    -0.06000
C905        C  0.50082338  0.29667674  0.64841597    -0.32900
C906        C  0.52125676  0.27140394  0.66448863     0.36100
H907        H  0.53568397  0.30656081  0.74483584     0.16500
O908        O  0.49203281  0.35397246  0.72261315    -0.60400
H909        H  0.49002928  0.29309803  0.62203084     0.16500
O910        O  0.52851467  0.24353536  0.64544745    -0.60500
H911        H  0.50881045  0.22779251  0.65195087     0.43500
H912        H  0.51444318  0.36571345  0.73061629     0.43400
C913        C  0.62381622  0.38283729  0.70465061    -0.05600
C914        C  0.58669874  0.38791015  0.69643629    -0.33000
C915        C  0.57399247  0.41910470  0.68649370     0.36200
C916        C  0.59905789  0.44554138  0.68380708    -0.06000
C917        C  0.63658416  0.43990049  0.69091344    -0.32900
C918        C  0.64896124  0.40889028  0.70151722     0.36100
H919        H  0.56760983  0.36759075  0.69792757     0.16500
O920        O  0.53698002  0.42378709  0.68087290    -0.60400
H921        H  0.65653851  0.45948239  0.68769421     0.16500
O922        O  0.68595381  0.40373621  0.70664490    -0.60500
H923        H  0.69089086  0.41051553  0.73128852     0.43500
H924        H  0.53094744  0.41125231  0.65921138     0.43400
C925        C  0.21493949  0.72978738  0.60099572    -0.05600
C926        C  0.19636920  0.69944480  0.60150027    -0.33000
C927        C  0.20921146  0.67281931  0.58150588     0.36200
C928        C  0.24148595  0.67601645  0.56126513    -0.06000
C929        C  0.25866745  0.70674034  0.55901186    -0.32900
C930        C  0.24559290  0.73350923  0.57847194     0.36100
H931        H  0.17329434  0.69568891  0.61904099     0.16500
O932        O  0.19086544  0.64334415  0.58285972    -0.60400
H933        H  0.28215175  0.71006302  0.54186819     0.16500
O934        O  0.26321032  0.76328086  0.57568599    -0.60500
H935        H  0.28704391  0.76042291  0.58823472     0.43500
H936        H  0.17056359  0.64544883  0.56540665     0.43400
C937        C  0.35282096  0.72938915  0.73178949    -0.05600
C938        C  0.36063920  0.70223152  0.75355532    -0.33000
C939        C  0.37665201  0.67344584  0.73982437     0.36200
C940        C  0.38480266  0.67085778  0.70337994    -0.06000
C941        C  0.37681144  0.69776406  0.68160849    -0.32900
C942        C  0.36166886  0.72679519  0.69533981     0.36100
H943        H  0.35393206  0.70305651  0.78131144     0.16500
O944        O  0.38488824  0.64804395  0.76247219    -0.60400
H945        H  0.38359981  0.69680384  0.65386482     0.16500
O946        O  0.35456241  0.75210307  0.67228598    -0.60500
H947        H  0.37848379  0.76345127  0.66907660     0.43500
H948        H  0.36139488  0.63614483  0.76606329     0.43400
C949        C  0.28934856  0.66326540  0.69740623    -0.05600
C950        C  0.29605659  0.63776922  0.72155515    -0.33000
C951        C  0.30385606  0.60620705  0.70974401     0.36200
C952        C  0.30289270  0.59957001  0.67336424    -0.06000
C953        C  0.30049772  0.62566265  0.64930242    -0.32900
C954        C  0.29450300  0.65762447  0.66116813     0.36100
H955        H  0.29351797  0.64200249  0.74961607     0.16500
O956        O  0.30940142  0.58148893  0.73392780    -0.60400
H957        H  0.30044372  0.62090324  0.62130665     0.16500
O958        O  0.29048344  0.68245241  0.63695471    -0.60500
H959        H  0.26355973  0.68543814  0.63454144     0.43500
H960        H  0.33649282  0.58017260  0.73702419     0.43400
C961        C  0.18793134  0.35451110  0.63111989    -0.05600
C962        C  0.20160830  0.38627293  0.62327352    -0.33000
C963        C  0.22763768  0.39158075  0.59641047     0.36200
C964        C  0.24162956  0.36479833  0.57719590    -0.06000
C965        C  0.22896473  0.33290568  0.58618313    -0.32900
C966        C  0.20225999  0.32771470  0.61231829     0.36100
H967        H  0.19218805  0.40721637  0.63831676     0.16500
O968        O  0.23860874  0.42309482  0.58885224    -0.60400
H969        H  0.23946009  0.31164658  0.57231675     0.16500
O970        O  0.19113604  0.29620889  0.61994885    -0.60500
H971        H  0.21252272  0.28548159  0.63161503     0.43500
H972        H  0.21985827  0.43174569  0.57212564     0.43400
C973        C  0.24517407  0.49227414  0.69006924    -0.05600
C974        C  0.21112194  0.48011183  0.67868099    -0.33000
C975        C  0.18987770  0.46084341  0.70135717     0.36200
C976        C  0.20334412  0.45302463  0.73523881    -0.06000
C977        C  0.23597542  0.46725492  0.74744332    -0.32900
C978        C  0.25688273  0.48689814  0.72508949     0.36100
H979        H  0.20147077  0.48500464  0.65210500     0.16500
O980        O  0.15810901  0.44665107  0.68888370    -0.60400
H981        H  0.24701122  0.46054079  0.77309044     0.16500
O982        O  0.28955671  0.49965208  0.73715502    -0.60500
H983        H  0.30857394  0.48332443  0.73049977     0.43500
H984        H  0.13793897  0.45658037  0.70280166     0.43400
C985        C  0.32093428  0.34310701  0.75131886    -0.05600
C986        C  0.33245927  0.37551144  0.74305886    -0.33000
C987        C  0.35505686  0.38240403  0.71388475     0.36200
C988        C  0.36710542  0.35679307  0.69201410    -0.06000
C989        C  0.35581371  0.32433769  0.70041091    -0.32900
C990        C  0.33345502  0.31740953  0.72975479     0.36100
H991        H  0.32238732  0.39596249  0.75852254     0.16500
O992        O  0.36616839  0.41415194  0.70774205    -0.60400
H993        H  0.36503579  0.30400177  0.68430622     0.16500
O994        O  0.32158621  0.28579027  0.73533633    -0.60500
H995        H  0.34245415  0.27447184  0.74722094     0.43500
H996        H  0.34565068  0.42448336  0.69433609     0.43400
C997        C  0.11034941  0.18754629  0.94889988    -0.05600
C998        C  0.09414291  0.21875169  0.94572486    -0.33000
C999        C  0.11269225  0.24521543  0.92965670     0.36200
C1000       C  0.14753165  0.24078812  0.91343076    -0.06000
C1001       C  0.16397372  0.20953018  0.91661794    -0.32900
C1002       C  0.14620612  0.18346991  0.93484163     0.36100
H1003       H  0.06810064  0.22347144  0.95858535     0.16500
O1004       O  0.09643157  0.27568677  0.93052474    -0.60400
H1005       H  0.19067844  0.20517047  0.90496420     0.16500
O1006       O  0.16494288  0.15459978  0.94065033    -0.60500
H1007       H  0.16788896  0.14444981  0.91711792     0.43500
H1008       H  0.10584090  0.28609525  0.95237783     0.43400
C1009       C  0.60627224  0.70166326  0.37582307    -0.05600
C1010       C  0.61085770  0.66876800  0.38579408    -0.33000
C1011       C  0.59868151  0.65797027  0.41875473     0.36200
C1012       C  0.58043641  0.68012049  0.44134546    -0.06000
C1013       C  0.57516615  0.71284801  0.43046386    -0.32900
C1014       C  0.58939914  0.72393546  0.39872269     0.36100
H1015       H  0.62576677  0.65204737  0.36898627     0.16500
O1016       O  0.60641977  0.62637774  0.42926795    -0.60400
H1017       H  0.56103758  0.73029612  0.44714731     0.16500
O1018       O  0.58713006  0.75675832  0.39038992    -0.60500
H1019       H  0.60767335  0.76732955  0.40342062     0.43500
H1020       H  0.63025045  0.62778970  0.44205534     0.43400
C1021       C  0.52241769  0.74199425  0.30426520    -0.05600
C1022       C  0.50872321  0.71001629  0.29752374    -0.33000
C1023       C  0.49223270  0.69065111  0.32398271     0.36200
C1024       C  0.48897373  0.70263541  0.35856469    -0.06000
C1025       C  0.50334593  0.73428084  0.36562630    -0.32900
C1026       C  0.51942918  0.75388404  0.33899867     0.36100
H1027       H  0.50982659  0.70006842  0.27119590     0.16500
O1028       O  0.47724653  0.66080441  0.31511229    -0.60400
H1029       H  0.50014562  0.74466243  0.39168526     0.16500
O1030       O  0.53202441  0.78468061  0.34738049    -0.60500
H1031       H  0.51039008  0.79937922  0.34459491     0.43500
H1032       H  0.45124648  0.66557817  0.30876661     0.43400
C1033       C  0.65115426  0.63055798  0.29106079    -0.05600
C1034       C  0.61309269  0.62915865  0.29848824    -0.33000
C1035       C  0.59819700  0.60607596  0.32188948     0.36200
C1036       C  0.62104773  0.58262514  0.33824204    -0.06000
C1037       C  0.65941278  0.58452398  0.33212254    -0.32900
C1038       C  0.67452619  0.60853499  0.30924024     0.36100
H1039       H  0.59422354  0.64614506  0.28601495     0.16500
O1040       O  0.56079931  0.60543919  0.32680012    -0.60400
H1041       H  0.67764934  0.56672918  0.34444535     0.16500
O1042       O  0.71186048  0.60962362  0.30424399    -0.60500
H1043       H  0.71715004  0.59203174  0.28695896     0.43500
H1044       H  0.55566376  0.62347353  0.34362574     0.43400
C1045       C  0.66096247  0.31354895  0.39329900    -0.05600
C1046       C  0.67684168  0.34487386  0.39768265    -0.33000
C1047       C  0.66137093  0.36803108  0.42110848     0.36200
C1048       C  0.62875522  0.36063092  0.43978087    -0.06000
C1049       C  0.61349887  0.32918768  0.43588953    -0.32900
C1050       C  0.62946936  0.30576494  0.41358713     0.36100
H1051       H  0.70077606  0.35172305  0.38241271     0.16500
O1052       O  0.67878950  0.39756956  0.42624729    -0.60400
H1053       H  0.58993035  0.32216190  0.45161454     0.16500
O1054       O  0.61397009  0.27502267  0.41199422    -0.60500
H1055       H  0.62864198  0.26132721  0.42860016     0.43500
H1056       H  0.67084689  0.41170041  0.40625215     0.43400
C1057       C  0.60394614  0.46124923  0.33828373    -0.05600
C1058       C  0.61238460  0.45980653  0.30214208    -0.33000
C1059       C  0.62433836  0.43052874  0.28669422     0.36200
C1060       C  0.62660243  0.40157400  0.30699477    -0.06000
C1061       C  0.61634771  0.40240528  0.34250208    -0.32900
C1062       C  0.60568513  0.43192940  0.35830840     0.36100
H1063       H  0.61001567  0.48155414  0.28569322     0.16500
O1064       O  0.63266796  0.43026570  0.25148017    -0.60400
H1065       H  0.61769688  0.38024204  0.35840470     0.16500
O1066       O  0.59858061  0.43198282  0.39366622    -0.60500
H1067       H  0.57367639  0.42221957  0.39558267     0.43500
H1068       H  0.65806612  0.43910383  0.24995199     0.43400
C1069       C  0.53623279  0.32720199  0.26152314    -0.05600
C1070       C  0.54086647  0.36162280  0.25810944    -0.33000
C1071       C  0.52142468  0.38390272  0.28004252     0.36200
C1072       C  0.49765225  0.37204037  0.30664557    -0.06000
C1073       C  0.49390036  0.33777331  0.31028291    -0.32900
C1074       C  0.51198981  0.31576763  0.28790154     0.36100
H1075       H  0.55984715  0.37126730  0.23873081     0.16500
O1076       O  0.52469096  0.41709673  0.27423475    -0.60400
H1077       H  0.47460464  0.32795050  0.32931613     0.16500
O1078       O  0.50549772  0.28272197  0.29210802    -0.60500
H1079       H  0.48865966  0.27668066  0.27251448     0.43500
H1080       H  0.53985853  0.42537449  0.29411015     0.43400
C1081       C  0.20028191  0.65529866  0.38386408    -0.05600
C1082       C  0.17472127  0.64601837  0.40964518    -0.33000
C1083       C  0.18668652  0.63105405  0.44101127     0.36200
C1084       C  0.22452289  0.62500182  0.44635652    -0.06000
C1085       C  0.24914482  0.63057509  0.41872090    -0.32900
C1086       C  0.23760338  0.64612624  0.38798111     0.36100
H1087       H  0.14583851  0.65207896  0.40641885     0.16500
O1088       O  0.16167690  0.62352263  0.46683569    -0.60400
H1089       H  0.27840563  0.62645966  0.42236278     0.16500
O1090       O  0.26397473  0.65646528  0.36461406    -0.60500
H1091       H  0.27428451  0.63618686  0.35416293     0.43500
H1092       H  0.15099632  0.64482284  0.47438416     0.43400
C1093       C  0.22458243  0.62105227  0.26933993    -0.05600
C1094       C  0.26294280  0.61504090  0.26977469    -0.33000
C1095       C  0.27932949  0.59351027  0.29452296     0.36200
C1096       C  0.25761845  0.57750445  0.31996424    -0.06000
C1097       C  0.21928246  0.58335636  0.31942430    -0.32900
C1098       C  0.20282717  0.60463538  0.29454558     0.36100
H1099       H  0.28053298  0.62761945  0.25110084     0.16500
O1100       O  0.31641101  0.58745128  0.29278096    -0.60400
H1101       H  0.20183143  0.57090427  0.33831794     0.16500
O1102       O  0.16578044  0.61076009  0.29670127    -0.60500
H1103       H  0.15402203  0.59441839  0.28091397     0.43500
H1104       H  0.32781720  0.60305840  0.30963332     0.43400
C1105       C  0.36224955  0.71650876  0.39104975    -0.05600
C1106       C  0.36315345  0.73773504  0.36128793    -0.33000
C1107       C  0.33346819  0.75770420  0.35170962     0.36200
C1108       C  0.30010101  0.75509579  0.36967124    -0.06000
C1109       C  0.29862647  0.73468916  0.39984553    -0.32900
C1110       C  0.32948023  0.71599070  0.41099925     0.36100
H1111       H  0.38643777  0.73793232  0.34363945     0.16500
O1112       O  0.33555370  0.77581028  0.32116776    -0.60400
H1113       H  0.27266374  0.73145985  0.41336969     0.16500
O1114       O  0.32706217  0.69731155  0.44107650    -0.60500
H1115       H  0.30934787  0.67949804  0.43549007     0.43500
H1116       H  0.34622184  0.79723802  0.32832072     0.43400
C1117       C  0.10531757  0.94478502  0.19326060    -0.05600
C1118       C  0.08115961  0.92852469  0.21597388    -0.33000
C1119       C  0.09407348  0.90549227  0.24085840     0.36200
C1120       C  0.13210368  0.89730822  0.24313891    -0.06000
C1121       C  0.15653276  0.91422347  0.22096598    -0.32900
C1122       C  0.14356231  0.93815986  0.19674946     0.36100
H1123       H  0.05207472  0.93448055  0.21525010     0.16500
O1124       O  0.06913650  0.89148906  0.26347865    -0.60400
H1125       H  0.18554705  0.90802690  0.22132873     0.16500
O1126       O  0.16822085  0.95336965  0.17478879    -0.60500
H1127       H  0.18304562  0.96802469  0.19014087     0.43500
H1128       H  0.05364349  0.87685410  0.24870393     0.43400
C1129       C  0.20938563  0.28739766  0.41261266    -0.05600
C1130       C  0.24684548  0.28189613  0.42126385    -0.33000
C1131       C  0.26756396  0.30472785  0.44100991     0.36200
C1132       C  0.25096850  0.33354102  0.45376773    -0.06000
C1133       C  0.21303979  0.33825706  0.44666561    -0.32900
C1134       C  0.19254663  0.31594863  0.42604033     0.36100
H1135       H  0.26068689  0.26015899  0.41151595     0.16500
O1136       O  0.30389921  0.29827346  0.44821324    -0.60400
H1137       H  0.19915545  0.35958485  0.45735561     0.16500
O1138       O  0.15660987  0.32323261  0.41794113    -0.60500
H1139       H  0.14179740  0.31105800  0.43557207     0.43500
H1140       H  0.30382831  0.28530668  0.47040645     0.43400
C1141       C  0.36809783  0.37476748  0.31255945    -0.05600
C1142       C  0.37205695  0.34042002  0.31110327    -0.33000
C1143       C  0.34793000  0.32094291  0.29149890     0.36200
C1144       C  0.31746415  0.33510900  0.27381464    -0.06000
C1145       C  0.31275578  0.36952163  0.27571615    -0.32900
C1146       C  0.33804878  0.38936620  0.29465156     0.36100
H1147       H  0.39539188  0.32868646  0.32395215     0.16500
O1148       O  0.35404125  0.28762659  0.29030327    -0.60400
H1149       H  0.28900224  0.38087500  0.26332117     0.16500
O1150       O  0.33386477  0.42289238  0.29440649    -0.60500
H1151       H  0.32590943  0.42863700  0.31857322     0.43500
H1152       H  0.37125973  0.28438894  0.27041826     0.43400
C1153       C  0.25331848  0.45857850  0.34253331    -0.05600
C1154       C  0.24178833  0.43643545  0.36864279    -0.33000
C1155       C  0.22557394  0.40660157  0.35930121     0.36200
C1156       C  0.21945525  0.39918754  0.32364410    -0.06000
C1157       C  0.23128702  0.42106175  0.29752554    -0.32900
C1158       C  0.24886656  0.45030336  0.30668854     0.36100
H1159       H  0.24512922  0.44233730  0.39629349     0.16500
O1160       O  0.21536947  0.38501014  0.38518227    -0.60400
H1161       H  0.22812704  0.41489105  0.26991106     0.16500
O1162       O  0.26369700  0.46966652  0.28062964    -0.60500
H1163       H  0.24244645  0.47839089  0.26696800     0.43500
H1164       H  0.23752028  0.37117618  0.38914818     0.43400
C1165       C  0.14563416  0.22813653  0.11741927    -0.05600
C1166       C  0.16616166  0.20046294  0.10722558    -0.33000
C1167       C  0.15099611  0.17697754  0.08412245     0.36200
C1168       C  0.11414242  0.17994641  0.07243400    -0.06000
C1169       C  0.09405302  0.20781619  0.08198005    -0.32900
C1170       C  0.10955079  0.23208911  0.10351739     0.36100
H1171       H  0.19365628  0.19665817  0.11767026     0.16500
O1172       O  0.17207014  0.15083759  0.07356634    -0.60400
H1173       H  0.06686152  0.21183648  0.07081059     0.16500
O1174       O  0.09008255  0.26061173  0.10936441    -0.60500
H1175       H  0.06501461  0.25394607  0.11680739     0.43500
H1176       H  0.18685180  0.15927660  0.05358168     0.43400
C1177       C  0.10247728  0.06517406  0.17839013    -0.05600
C1178       C  0.10414652  0.09239618  0.15548683    -0.33000
C1179       C  0.11520671  0.12309953  0.16788148     0.36200
C1180       C  0.12790002  0.12639216  0.20266315    -0.06000
C1181       C  0.12538335  0.09973633  0.22588198    -0.32900
C1182       C  0.11154790  0.06959278  0.21438705     0.36100
H1183       H  0.09688971  0.09011109  0.12790029     0.16500
O1184       O  0.11417965  0.14964665  0.14564825    -0.60400
H1185       H  0.13275408  0.10268156  0.25340797     0.16500
O1186       O  0.10443077  0.04550359  0.23892343    -0.60500
H1187       H  0.12870594  0.03919101  0.24900171     0.43500
H1188       H  0.08830059  0.15746226  0.14614146     0.43400
C1189       C  0.86343041  0.14714337  0.20136371    -0.05600
C1190       C  0.84074145  0.13786914  0.22969320    -0.33000
C1191       C  0.81808953  0.16127194  0.24650386     0.36200
C1192       C  0.81965729  0.19474126  0.23637985    -0.06000
C1193       C  0.84291966  0.20360621  0.20833176    -0.32900
C1194       C  0.86372006  0.18025342  0.19049585     0.36100
H1195       H  0.84085659  0.11261149  0.23891631     0.16500
O1196       O  0.79362463  0.15094459  0.27159470    -0.60400
H1197       H  0.84480888  0.22899394  0.19969609     0.16500
O1198       O  0.88639806  0.19046538  0.16378349    -0.60500
H1199       H  0.87303766  0.18493687  0.14172755     0.43500
H1200       H  0.80695513  0.15305842  0.29433584     0.43400
C1201       C  0.99107472  0.15035880  0.20608278    -0.05600
C1202       C  0.98430801  0.18445852  0.20725971    -0.33000
C1203       C  0.00365254  0.20526290  0.23022309     0.36200
C1204       C  0.03213174  0.19290182  0.25206928    -0.06000
C1205       C  0.03978827  0.15882208  0.25046138    -0.32900
C1206       C  0.01926367  0.13762431  0.22806542     0.36100
H1207       H  0.96200237  0.19481223  0.19167324     0.16500
O1208       O  0.99448262  0.23801752  0.23096549    -0.60400
H1209       H  0.06208278  0.14867219  0.26616593     0.16500
O1210       O  0.02592985  0.10442298  0.22910573    -0.60500
H1211       H  0.03639693  0.09900649  0.20575922     0.43500
H1212       H  0.97370830  0.23955410  0.24773551     0.43400
C1213       C  0.73425186  0.94572036  0.16722052    -0.05600
C1214       C  0.70103389  0.93325689  0.15318665    -0.33000
C1215       C  0.67795101  0.91216642  0.17314557     0.36200
C1216       C  0.68739220  0.90362391  0.20821534    -0.06000
C1217       C  0.72022086  0.91695847  0.22223182    -0.32900
C1218       C  0.74335323  0.93748014  0.20223136     0.36100
H1219       H  0.69264832  0.94032597  0.12678388     0.16500
O1220       O  0.64642019  0.90000705  0.15803031    -0.60400
H1221       H  0.72862474  0.91073853  0.24888058     0.16500
O1222       O  0.77490747  0.94963108  0.21733414    -0.60500
H1223       H  0.76703650  0.96943436  0.23050270     0.43500
H1224       H  0.65472006  0.88237027  0.14192266     0.43400
C1225       C  0.72617169  0.12988207  0.17599907    -0.05600
C1226       C  0.69981287  0.10515336  0.17051584    -0.33000
C1227       C  0.70977564  0.07433874  0.15698283     0.36200
C1228       C  0.74717226  0.06699212  0.15040239    -0.06000
C1229       C  0.77320702  0.09245622  0.15412778    -0.32900
C1230       C  0.76270893  0.12387205  0.16550012     0.36100
H1231       H  0.67111994  0.10982341  0.17638449     0.16500
O1232       O  0.68257977  0.05214684  0.14875351    -0.60400
H1233       H  0.80204903  0.08800682  0.14892256     0.16500
O1234       O  0.78871693  0.14816675  0.16734228    -0.60500
H1235       H  0.78946226  0.15797604  0.14338030     0.43500
H1236       H  0.67042660  0.04659299  0.17135900     0.43400
C1237       C  0.99022241  0.80207265  0.12249413    -0.05600
C1238       C  0.98327004  0.78183920  0.15221405    -0.33000
C1239       C  0.00968045  0.76028811  0.16604071     0.36200
C1240       C  0.04514004  0.75916689  0.15164072    -0.06000
C1241       C  0.05227161  0.77842130  0.12135016    -0.32900
C1242       C  0.02519649  0.79957545  0.10666871     0.36100
H1243       H  0.95756282  0.78382614  0.16637027     0.16500
O1244       O  0.00228117  0.74426325  0.19713156    -0.60400
H1245       H  0.07994262  0.77922182  0.11084790     0.16500
O1246       O  0.03346518  0.81788017  0.07732583    -0.60500
H1247       H  0.05037979  0.83539616  0.08567978     0.43500
H1248       H  0.00024359  0.72066615  0.19085789     0.43400
C1249       C  0.86102096  0.82175553  0.13277516    -0.05600
C1250       C  0.86008202  0.82658523  0.16923467    -0.33000
C1251       C  0.83716064  0.80772653  0.19078957     0.36200
C1252       C  0.81303296  0.78399474  0.17611330    -0.06000
C1253       C  0.81384041  0.77903918  0.13945491    -0.32900
C1254       C  0.83817940  0.79722805  0.11796469     0.36100
H1255       H  0.87893736  0.84387914  0.18139996     0.16500
O1256       O  0.83841834  0.81298608  0.22647432    -0.60400
H1257       H  0.79517582  0.76157125  0.12737426     0.16500
O1258       O  0.83958316  0.79085986  0.08254492    -0.60500
H1259       H  0.85655492  0.77186924  0.08024963     0.43500
H1260       H  0.85412032  0.79507333  0.23610436     0.43400
C1261       C  0.11470916  0.97805785  0.83879203    -0.05600
C1262       C  0.11641633  0.97535183  0.80195688    -0.33000
C1263       C  0.13070941  0.94714197  0.78640677     0.36200
C1264       C  0.14215702  0.92071872  0.80778606    -0.06000
C1265       C  0.13952171  0.92294604  0.84446611    -0.32900
C1266       C  0.12678043  0.95166939  0.86010724     0.36100
H1267       H  0.10654193  0.99512643  0.78514233     0.16500
O1268       O  0.13209585  0.94508485  0.75035516    -0.60400
H1269       H  0.14849023  0.90270197  0.86099609     0.16500
O1270       O  0.12703868  0.95392647  0.89614433    -0.60500
H1271       H  0.14919318  0.96709092  0.90205166     0.43500
H1272       H  0.15397938  0.95814113  0.74342053     0.43400
C1273       C  0.10281841  0.10018857  0.83829144    -0.05600
C1274       C  0.11121985  0.10413181  0.80234320    -0.33000
C1275       C  0.12323963  0.13450221  0.78931299     0.36200
C1276       C  0.12590417  0.16148563  0.81220784    -0.06000
C1277       C  0.11716813  0.15754063  0.84781787    -0.32900
C1278       C  0.10618581  0.12728924  0.86102356     0.36100
H1279       H  0.10821235  0.08375398  0.78424834     0.16500
O1280       O  0.13057268  0.13791190  0.75407831    -0.60400
H1281       H  0.11911037  0.17807981  0.86576928     0.16500
O1282       O  0.10023898  0.12423554  0.89650781    -0.60500
H1283       H  0.07764561  0.13722973  0.90094206     0.43500
H1284       H  0.15610340  0.12971786  0.75118956     0.43400
C1285       C  0.88068699  0.89235999  0.80668837    -0.05600
C1286       C  0.87587279  0.88115033  0.77198835    -0.33000
C1287       C  0.84625199  0.86078976  0.76316077     0.36200
C1288       C  0.82079106  0.85140814  0.78930785    -0.06000
C1289       C  0.82236889  0.86694583  0.82216798    -0.32900
C1290       C  0.85187309  0.88723732  0.83108032     0.36100
H1291       H  0.89634089  0.88652181  0.75211736     0.16500
O1292       O  0.84259027  0.85019921  0.72902276    -0.60400
H1293       H  0.80149358  0.86220463  0.84182461     0.16500
O1294       O  0.85275790  0.90031427  0.86435780    -0.60500
H1295       H  0.87142813  0.88745601  0.87766961     0.43500
H1296       H  0.86124145  0.83257227  0.72624810     0.43400
C1297       C  0.01399011  0.86935650  0.80935193    -0.05600
C1298       C  0.03173834  0.88088252  0.77890332    -0.33000
C1299       C  0.05481660  0.86018019  0.75926021     0.36200
C1300       C  0.06016985  0.82712336  0.76974406    -0.06000
C1301       C  0.04237371  0.81582893  0.80037741    -0.32900
C1302       C  0.01976799  0.83663283  0.82017442     0.36100
H1303       H  0.02686332  0.90582955  0.76980319     0.16500
O1304       O  0.07285752  0.87287175  0.73061894    -0.60400
H1305       H  0.04617835  0.79064886  0.80918134     0.16500
O1306       O  0.00197338  0.82424615  0.84911966    -0.60500
H1307       H  0.01579563  0.83287054  0.86971539     0.43500
H1308       H  0.05532288  0.87060534  0.71065734     0.43400
C1309       C  0.87453960  0.17380502  0.81982212    -0.05600
C1310       C  0.86282087  0.20376078  0.83406304    -0.33000
C1311       C  0.84573585  0.22777618  0.81295752     0.36200
C1312       C  0.83761002  0.22157215  0.77710591    -0.06000
C1313       C  0.84920904  0.19155713  0.76263674    -0.32900
C1314       C  0.86841702  0.16825338  0.78342178     0.36100
H1315       H  0.86926898  0.20957705  0.86125295     0.16500
O1316       O  0.83553910  0.25695012  0.82814972    -0.60400
H1317       H  0.84300940  0.18592414  0.73536679     0.16500
O1318       O  0.88215142  0.14041177  0.76785976    -0.60500
H1319       H  0.90281701  0.14799355  0.75290124     0.43500
H1320       H  0.85753751  0.27129057  0.82639840     0.43400
C1321       C  0.02849261  0.23456994  0.78791169    -0.05600
C1322       C  0.03921051  0.20131066  0.78485101    -0.33000
C1323       C  0.02364420  0.17658982  0.80680020     0.36200
C1324       C  0.99884505  0.18498482  0.83401581    -0.06000
C1325       C  0.98900225  0.21827299  0.83723913    -0.32900
C1326       C  0.00201975  0.24232018  0.81381359     0.36100
H1327       H  0.06004946  0.19452742  0.76591380     0.16500
O1328       O  0.03218931  0.14420670  0.80098622    -0.60400
H1329       H  0.96790514  0.22521195  0.85592508     0.16500
O1330       O  0.98824647  0.27373891  0.81606307    -0.60500
H1331       H  0.99730483  0.28256152  0.83883275     0.43500
H1332       H  0.01361378  0.13639446  0.78370116     0.43400
C1333       C  0.75615303  0.93347288  0.83062547    -0.05600
C1334       C  0.72604488  0.92274155  0.85071397    -0.33000
C1335       C  0.70078590  0.89937014  0.83725747     0.36200
C1336       C  0.70499337  0.88655101  0.80283334    -0.06000
C1337       C  0.73528883  0.89720681  0.78299391    -0.32900
C1338       C  0.76053430  0.92023751  0.79649616     0.36100
H1339       H  0.72114802  0.93354552  0.87631661     0.16500
O1340       O  0.67083491  0.89059982  0.85711366    -0.60400
H1341       H  0.74010391  0.88698894  0.75710128     0.16500
O1342       O  0.78998766  0.92951263  0.77623089    -0.60500
H1343       H  0.77958133  0.94358508  0.75722547     0.43500
H1344       H  0.68093266  0.88001311  0.87868521     0.43400
C1345       C  0.77965923  0.05015173  0.80378810    -0.05600
C1346       C  0.74260114  0.05511299  0.79419674    -0.33000
C1347       C  0.73190589  0.08278062  0.77496282     0.36200
C1348       C  0.75817987  0.10676517  0.76615902    -0.06000
C1349       C  0.79527356  0.10158744  0.77480773    -0.32900
C1350       C  0.80628583  0.07322869  0.79293853     0.36100
H1351       H  0.72148578  0.03805496  0.80268310     0.16500
O1352       O  0.69520360  0.08762066  0.76787134    -0.60400
H1353       H  0.81558936  0.11977287  0.76767317     0.16500
O1354       O  0.84296553  0.06849028  0.80009436    -0.60500
H1355       H  0.85248822  0.05581479  0.77981210     0.43500
H1356       H  0.69071396  0.07651861  0.74502699     0.43400
C1357       C  0.14720586  0.84357698  0.12915014    -0.05600
C1358       C  0.13600196  0.87643140  0.12982901    -0.33000
C1359       C  0.12819424  0.89327705  0.09853860     0.36200
C1360       C  0.12955997  0.87651854  0.06624595    -0.06000
C1361       C  0.13971631  0.84318147  0.06579457    -0.32900
C1362       C  0.14928475  0.82688358  0.09686769     0.36100
H1363       H  0.13403819  0.88902554  0.15460088     0.16500
O1364       O  0.12084987  0.92630077  0.09960070    -0.60400
H1365       H  0.14009325  0.82963561  0.04125620     0.16500
O1366       O  0.15871946  0.79418000  0.09572276    -0.60500
H1367       H  0.18331919  0.79351556  0.08451679     0.43500
H1368       H  0.09421430  0.92766001  0.10452749     0.43400
C1369       C  0.14951694  0.88018765  0.94029321    -0.05600
C1370       C  0.18302761  0.89226754  0.92683123    -0.33000
C1371       C  0.20450961  0.87303579  0.90367251     0.36200
C1372       C  0.19329884  0.84075555  0.89513678    -0.06000
C1373       C  0.16111559  0.82839596  0.91110198    -0.32900
C1374       C  0.13898688  0.84790546  0.93232589     0.36100
H1375       H  0.19242211  0.91659173  0.93419747     0.16500
O1376       O  0.23536637  0.88641193  0.88873524    -0.60400
H1377       H  0.15206014  0.80342938  0.90626716     0.16500
O1378       O  0.10721366  0.83485503  0.94596795    -0.60500
H1379       H  0.11489101  0.82323287  0.96784060     0.43500
H1380       H  0.25518743  0.88325989  0.90650669     0.43400
C1381       C  0.73995913  0.17136827  0.06180900    -0.05600
C1382       C  0.70621674  0.16500639  0.07868688    -0.33000
C1383       C  0.68803397  0.18936252  0.09853180     0.36200
C1384       C  0.70337844  0.22112333  0.10212894    -0.06000
C1385       C  0.73751407  0.22721942  0.08566587    -0.32900
C1386       C  0.75546625  0.20296739  0.06557063     0.36100
H1387       H  0.69313804  0.14125962  0.07531013     0.16500
O1388       O  0.65574205  0.18143924  0.11503580    -0.60400
H1389       H  0.75024793  0.25121997  0.08800760     0.16500
O1390       O  0.78685085  0.21121353  0.04764556    -0.60500
H1391       H  0.80743693  0.20352327  0.06285366     0.43500
H1392       H  0.63621706  0.18522647  0.09710441     0.43400
C1393       C  0.68079332  0.16652768  0.87642582    -0.05600
C1394       C  0.68715212  0.18789353  0.90460233    -0.33000
C1395       C  0.70827120  0.17832164  0.93391568     0.36200
C1396       C  0.72147993  0.14549525  0.93770672    -0.06000
C1397       C  0.71398780  0.12349839  0.90997848    -0.32900
C1398       C  0.69478641  0.13405326  0.87929993     0.36100
H1399       H  0.67947439  0.21359240  0.90200507     0.16500
O1400       O  0.71809551  0.20229444  0.95753364    -0.60400
H1401       H  0.72402676  0.09842831  0.91149374     0.16500
O1402       O  0.69202156  0.11311009  0.85119633    -0.60500
H1403       H  0.71491074  0.11666884  0.83758736     0.43500
H1404       H  0.74167095  0.21133207  0.94866307     0.43400
C1405       C  0.71633758  0.83519335  0.09766011    -0.05600
C1406       C  0.75134861  0.84954361  0.10129860    -0.33000
C1407       C  0.77056719  0.86073958  0.07203156     0.36200
C1408       C  0.75456753  0.85846044  0.03828440    -0.06000
C1409       C  0.71866249  0.84611199  0.03469180    -0.32900
C1410       C  0.69966904  0.83408645  0.06402997     0.36100
H1411       H  0.76518779  0.85016300  0.12665587     0.16500
O1412       O  0.80654039  0.87032914  0.07624298    -0.60400
H1413       H  0.70616367  0.84409872  0.00879572     0.16500
O1414       O  0.66531149  0.82072260  0.05938513    -0.60500
H1415       H  0.66967291  0.79832473  0.04995779     0.43500
H1416       H  0.80536107  0.89286788  0.08606764     0.43400
C1417       C  0.79222101  0.75483223  0.88963842    -0.05600
C1418       C  0.81338558  0.78168807  0.87818087    -0.33000
C1419       C  0.82489067  0.80617468  0.90188399     0.36200
C1420       C  0.81489573  0.80436895  0.93767515    -0.06000
C1421       C  0.80020531  0.77409973  0.94975358    -0.32900
C1422       C  0.78788490  0.75003296  0.92602737     0.36100
H1423       H  0.81723962  0.78581028  0.85021199     0.16500
O1424       O  0.84259454  0.83315767  0.88894906    -0.60400
H1425       H  0.79481497  0.77027568  0.97749884     0.16500
O1426       O  0.76733951  0.72418983  0.93838491    -0.60500
H1427       H  0.78430266  0.70506059  0.93845466     0.43500
H1428       H  0.86874384  0.82640369  0.88693224     0.43400
loop_ 
_geom_bond_atom_site_label_1 
_geom_bond_atom_site_label_2 
_geom_bond_distance 
_geom_bond_site_symmetry_2 
_ccdc_geom_bond_type 
C1            C2   1.392       .  A
C1            C6   1.393   1_554  A
C1         C1408   1.474       .  S
C2            C3   1.399   1_554  A
C2            H7   1.085       .  S
C3            C4   1.423       .  A
C3          C756   1.488       .  S
C4            C5   1.427       .  A
C4            H8   1.080       .  S
C5            C6   1.407       .  A
C5         C1420   1.516       .  S
C6            H9   1.081       .  S
C10          C11   1.421       .  A
C10          C15   1.393       .  A
C10        C1381   1.501       .  S
C11          C12   1.426       .  A
C11          H16   1.083       .  S
C12          C13   1.431   1_554  A
C12         C788   1.522       .  S
C13          C14   1.427       .  A
C13          H17   1.083       .  S
C14          C15   1.399   1_556  A
C14        C1396   1.518       .  S
C15          H18   1.084       .  S
C19          C20   1.399       .  A
C19          C24   1.396       .  A
C19        C1360   1.473       .  S
C20          C21   1.398   1_554  A
C20          H25   1.083       .  S
C21          C22   1.414       .  A
C21         C757   1.476       .  S
C22          C23   1.416       .  A
C22          H26   1.082       .  S
C23          C24   1.395   1_556  A
C23        C1369   1.480       .  S
C24          H27   1.085       .  S
C28          C29   1.401       .  A
C28          C33   1.396   1_545  A
C28        C1345   1.479       .  S
C29          C30   1.401   1_545  A
C29          H34   1.084       .  S
C30          C31   1.427       .  A
C30         C792   1.493   1_565  S
C31          C32   1.424       .  A
C31          H35   1.083       .  S
C32          C33   1.396       .  A
C32        C1333   1.500       .  S
C33          H36   1.084       .  S
C37          C38   1.420       .  A
C37          C42   1.384       .  A
C37        C1309   1.489       .  S
C38          C39   1.425       .  A
C38          H43   1.083       .  S
C39          C40   1.433       .  A
C39         C793   1.519       .  S
C40          C41   1.428       .  A
C40          H44   1.083       .  S
C41          C42   1.385       .  A
C41        C1324   1.496       .  S
C42          H45   1.087       .  S
C46          C47   1.398       .  A
C46          C51   1.402       .  A
C46        C1285   1.488       .  S
C47          C48   1.399       .  A
C47          H52   1.083       .  S
C48          C49   1.414       .  A
C48         C758   1.475       .  S
C49          C50   1.414       .  A
C49          H53   1.083   1_655  S
C50          C51   1.398       .  A
C50        C1297   1.482   1_655  S
C51          H54   1.084       .  S
C55          C56   1.402       .  A
C55          C60   1.401       .  A
C55        C1273   1.475       .  S
C56          C57   1.390       .  A
C56          H61   1.083       .  S
C57          C58   1.392       .  A
C57         C789   1.444       .  S
C58          C59   1.398       .  A
C58          H62   1.084   1_545  S
C59          C60   1.401       .  A
C59        C1261   1.471   1_545  S
C60          H63   1.083       .  S
C64          C65   1.414       .  A
C64          C69   1.389       .  A
C64        C1249   1.485       .  S
C65          C66   1.418       .  A
C65          H70   1.083       .  S
C66          C67   1.428       .  A
C66         C759   1.510       .  S
C67          C68   1.427       .  A
C67          H71   1.081       .  S
C68          C69   1.399       .  A
C68        C1237   1.514       .  S
C69          H72   1.085       .  S
C73          C74   1.406       .  A
C73          C78   1.406       .  A
C73        C1228   1.500       .  S
C74          C75   1.402   1_545  A
C74          H79   1.082       .  S
C75          C76   1.424       .  A
C75        C1213   1.502       .  S
C76          C77   1.423       .  A
C76          H80   1.082       .  S
C77          C78   1.405   1_565  A
C77         C791   1.495       .  S
C78          H81   1.084       .  S
C82          C83   1.413       .  A
C82          C87   1.390       .  A
C82        C1189   1.481       .  S
C83          C84   1.417       .  A
C83          H88   1.083       .  S
C84          C85   1.434       .  A
C84         C794   1.515       .  S
C85          C86   1.428       .  A
C85          H89   1.083       .  S
C86          C87   1.393       .  A
C86        C1201   1.505       .  S
C87          H90   1.087       .  S
Zr91         O92   2.443       .  S
Zr91         O93   2.419       .  S
Zr91         O94   2.374       .  S
Zr91         O97   2.385       .  S
Zr91         O99   2.376       .  S
Zr91        O100   2.395       .  S
Zr91        O101   2.420       .  S
Zr91        O102   2.399       .  S
O92         H148   0.990       .  S
O92         H156   0.990       .  S
O93         C113   1.278       .  A
O94         C115   1.265       .  A
O95        Zr105   2.507       .  S
O95         C114   1.291       .  A
O96        Zr104   2.519       .  S
O96         C115   1.295       .  A
O97         C114   1.266       .  A
O98        Zr106   2.407       .  S
O98         C113   1.278       .  A
O99        Zr104   2.390       .  S
O99        Zr106   2.376       .  S
O100       Zr105   2.418       .  S
O100       Zr106   2.366       .  S
O100        H135   0.966       .  S
O101       Zr104   2.408       .  S
O101       Zr121   2.389       .  S
O101        H138   0.966       .  S
O102       Zr105   2.415       .  S
O102       Zr121   2.394       .  S
Zr103       O128   2.436       .  S
Zr103       O122   2.413       .  S
Zr103       O130   2.387       .  S
Zr103       O118   2.377       .  S
Zr103       O109   2.399       .  S
Zr103       O110   2.416       .  S
Zr103       O111   2.384       .  S
Zr103       O112   2.394       .  S
Zr104       O123   2.437       .  S
Zr104       O116   2.434       .  S
Zr104       O117   2.504       .  S
Zr104       O110   2.413       .  S
Zr104       O111   2.406       .  S
Zr105       O107   2.435       .  S
Zr105       O129   2.434       .  S
Zr105       O131   2.517       .  S
Zr105       O109   2.416       .  S
Zr105       O112   2.409       .  S
Zr106       O132   2.436       .  S
Zr106       O133   2.436       .  S
Zr106       O108   2.437       .  S
Zr106       O109   2.391       .  S
Zr106       O110   2.381       .  S
O107        H144   0.990       .  S
O108        H139   0.990       .  S
O108        H153   0.990       .  S
O110        H136   0.966       .  S
O111       Zr121   2.375       .  S
O112       Zr121   2.360       .  S
O112        H137   0.964       .  S
C113       C1156   1.461       .  S
C114       C1129   1.505       .  S
C115       C1144   1.491       .  S
O116        H152   0.990       .  S
O117        C119   1.293       .  A
O118        C119   1.264       .  A
C119       C1165   1.491       .  S
O120       Zr121   2.436       .  S
O120        H149   0.990       .  S
Zr121       O124   2.437       .  S
Zr121       O125   2.438       .  S
Zr121       O126   2.421       .  S
O122        C127   1.278       .  A
O123        H140   0.990       .  S
O123        H155   0.990       .  S
O124        H141   0.990       .  S
O125        H145   0.990       .  S
O125        H154   0.990       .  S
O126        C127   1.282       .  A
C127       C1180   1.462       .  S
O128        H147   0.989       .  S
O128        H151   0.990       .  S
O129        H143   0.990       .  S
O129        H150   0.990       .  S
O130        C134   1.268       .  A
O131        C134   1.291       .  A
O132        H142   0.990       .  S
O133        H146   0.990       .  S
C134       C1204   1.506       .  S
C157        C158   1.401       .  A
C157        C162   1.398       .  A
C157       C1177   1.483       .  S
C158        C159   1.397   1_545  A
C158        H163   1.083       .  S
C159        C160   1.424       .  A
C159        C790   1.492   1_565  S
C160        C161   1.427       .  A
C160        H164   1.082       .  S
C161        C162   1.395   1_565  A
C161       C1117   1.501       .  S
C162        H165   1.082       .  S
Zr166       O167   2.438       .  S
Zr166       O168   2.380       .  S
Zr166       O169   2.373       .  S
Zr166       O172   2.382       .  S
Zr166       O174   2.368       .  S
Zr166       O175   2.390       .  S
Zr166       O176   2.394       .  S
Zr166       O177   2.385       .  S
O167        H223   0.990       .  S
O167        H231   0.990       .  S
O168        C188   1.275       .  A
O169        C190   1.270       .  A
O170       Zr180   2.511       .  S
O170        C189   1.293       .  A
O171       Zr179   2.502       .  S
O171        C190   1.297       .  A
O172        C189   1.265       .  A
O173       Zr181   2.449       .  S
O173        C188   1.287       .  A
O174       Zr179   2.395       .  S
O174       Zr181   2.368       .  S
O175       Zr180   2.401       .  S
O175       Zr181   2.357       .  S
O175        H210   0.964       .  S
O176       Zr179   2.410       .  S
O176       Zr196   2.395       .  S
O176        H213   0.966       .  S
O177       Zr180   2.411       .  S
O177       Zr196   2.385       .  S
Zr178       O203   2.441       .  S
Zr178       O197   2.421       .  S
Zr178       O205   2.346       .  S
Zr178       O193   2.374       .  S
Zr178       O184   2.391       .  S
Zr178       O185   2.391       .  S
Zr178       O186   2.379       .  S
Zr178       O187   2.380       .  S
Zr179       O198   2.438       .  S
Zr179       O191   2.435       .  S
Zr179       O192   2.526       .  S
Zr179       O185   2.410       .  S
Zr179       O186   2.383       .  S
Zr180       O182   2.433       .  S
Zr180       O204   2.435       .  S
Zr180       O206   2.526       .  S
Zr180       O184   2.408       .  S
Zr180       O187   2.377       .  S
Zr181       O207   2.436       .  S
Zr181       O208   2.437       .  S
Zr181       O183   2.438       .  S
Zr181       O184   2.410       .  S
Zr181       O185   2.399       .  S
O182        H219   0.990       .  S
O183        H214   0.990       .  S
O183        H228   0.990       .  S
O185        H211   0.965       .  S
O186       Zr196   2.369       .  S
O187       Zr196   2.373       .  S
O187        H212   0.964       .  S
C188       C1081   1.471       .  S
C189       C1093   1.500       .  S
C190       C1108   1.474       .  S
O191        H227   0.990       .  S
O192        C194   1.297       .  A
O193        C194   1.262       .  A
C194       C1120   1.502       .  S
O195       Zr196   2.436       .  S
O195        H224   0.990       .  S
Zr196       O199   2.435       .  S
Zr196       O200   2.437       .  S
Zr196       O201   2.410       .  S
O197        C202   1.283       .  A
O198        H215   0.990       .  S
O198        H230   0.990       .  S
O199        H216   0.990       .  S
O200        H220   0.990       .  S
O200        H229   0.990       .  S
O201        C202   1.280       .  A
C202       C1357   1.459       .  S
O203        H222   0.990       .  S
O203        H226   0.990       .  S
O204        H218   0.990       .  S
O204        H225   0.990       .  S
O205        C209   1.269       .  A
O206        C209   1.302       .  A
O207        H217   0.990       .  S
O208        H221   0.990       .  S
C209       C1240   1.475       .  S
Zr232       O233   2.439       .  S
Zr232       O234   2.437       .  S
Zr232       O235   2.387       .  S
Zr232       O238   2.391       .  S
Zr232       O240   2.385       .  S
Zr232       O241   2.395       .  S
Zr232       O242   2.422       .  S
Zr232       O243   2.403       .  S
O233        H289   0.989       .  S
O233        H297   0.990       .  S
O234        C254   1.284       .  A
O235        C256   1.265       .  A
O236       Zr246   2.509       .  S
O236        C255   1.292       .  A
O237       Zr245   2.494       .  S
O237        C256   1.290       .  A
O238        C255   1.268       .  A
O239       Zr247   2.439       .  S
O239        C254   1.286       .  A
O240       Zr245   2.404       .  S
O240       Zr247   2.363       .  S
O241       Zr246   2.421       .  S
O241       Zr247   2.355       .  S
O241        H276   0.964       .  S
O242       Zr245   2.419       .  S
O242       Zr262   2.385       .  S
O242        H279   0.966       .  S
O243       Zr246   2.415       .  S
O243       Zr262   2.393       .  S
Zr244       O269   2.440       .  S
Zr244       O263   2.424       .  S
Zr244       O271   2.385       .  S
Zr244       O259   2.395       .  S
Zr244       O250   2.409       .  S
Zr244       O251   2.414       .  S
Zr244       O252   2.377       .  S
Zr244       O253   2.397       .  S
Zr245       O264   2.434       .  S
Zr245       O257   2.435       .  S
Zr245       O258   2.508       .  S
Zr245       O251   2.413       .  S
Zr245       O252   2.395       .  S
Zr246       O248   2.433       .  S
Zr246       O270   2.436       .  S
Zr246       O272   2.515       .  S
Zr246       O250   2.421       .  S
Zr246       O253   2.417       .  S
Zr247       O273   2.435       .  S
Zr247       O274   2.436       .  S
Zr247       O249   2.437       .  S
Zr247       O250   2.401       .  S
Zr247       O251   2.398       .  S
O248        H285   0.990       .  S
O249        H280   0.990       .  S
O249        H294   0.990       .  S
O251        H277   0.966       .  S
O252       Zr262   2.370       .  S
O253       Zr262   2.357       .  S
O253        H278   0.964       .  S
C254       C1225   1.489       .  S
C255       C1384   1.507       .  S
C256       C1192   1.492       .  S
O257        H293   0.990       .  S
O258        C260   1.294       .  A
O259        C260   1.268       .  A
C260       C1045   1.501       .  S
O261       Zr262   2.436       .  S
O261        H290   0.990       .  S
Zr262       O265   2.434       .  S
Zr262       O266   2.437       .  S
Zr262       O267   2.422       .  S
O263        C268   1.282       .  A
O264        H281   0.990       .  S
O264        H296   0.990       .  S
O265        H282   0.990       .  S
O266        H286   0.990       .  S
O266        H295   0.990       .  S
O267        C268   1.283       .  A
C268       C1060   1.472       .  S
O269        H288   0.990       .  S
O269        H292   0.990       .  S
O270        H284   0.990       .  S
O270        H291   0.990       .  S
O271        C275   1.267       .  A
O272        C275   1.290       .  A
O273        H283   0.989       .  S
O274        H287   0.990       .  S
C275       C1069   1.509       .  S
Zr298       O299   2.457       .  S
Zr298       O300   2.428       .  S
Zr298       O301   2.399       .  S
Zr298       O304   2.395       .  S
Zr298       O306   2.383       .  S
Zr298       O307   2.402       .  S
Zr298       O308   2.411       .  S
Zr298       O309   2.406       .  S
O299        H355   0.989       .  S
O299        H363   0.990       .  S
O300        C320   1.283       .  A
O301        C322   1.266       .  A
O302       Zr312   2.514       .  S
O302        C321   1.293       .  A
O303       Zr311   2.512       .  S
O303        C322   1.292       .  A
O304        C321   1.267       .  A
O305       Zr313   2.400       .  S
O305        C320   1.278       .  A
O306       Zr311   2.393       .  S
O306       Zr313   2.362       .  S
O307       Zr312   2.415       .  S
O307       Zr313   2.353       .  S
O307        H342   0.964       .  S
O308       Zr311   2.423       .  S
O308       Zr328   2.398       .  S
O308        H345   0.966       .  S
O309       Zr312   2.424       .  S
O309       Zr328   2.394       .  S
Zr310       O335   2.440       .  S
Zr310       O329   2.404       .  S
Zr310       O337   2.384       .  S
Zr310       O325   2.380       .  S
Zr310       O316   2.396       .  S
Zr310       O317   2.413       .  S
Zr310       O318   2.379       .  S
Zr310       O319   2.394       .  S
Zr311       O330   2.434       .  S
Zr311       O323   2.433       .  S
Zr311       O324   2.508       .  S
Zr311       O317   2.410       .  S
Zr311       O318   2.401       .  S
Zr312       O314   2.435       .  S
Zr312       O336   2.435       .  S
Zr312       O338   2.517       .  S
Zr312       O316   2.419       .  S
Zr312       O319   2.417       .  S
Zr313       O339   2.436       .  S
Zr313       O340   2.436       .  S
Zr313       O315   2.435       .  S
Zr313       O316   2.388       .  S
Zr313       O317   2.378       .  S
O314        H351   0.990       .  S
O315        H346   0.990       .  S
O315        H360   0.990       .  S
O317        H343   0.967       .  S
O318       Zr328   2.375       .  S
O319       Zr328   2.367       .  S
O319        H344   0.965       .  S
C320       C1009   1.451       .  S
C321       C1021   1.513       .  S
C322       C1033   1.505       .  S
O323        H359   0.990       .  S
O324        C326   1.293       .  A
O325        C326   1.265       .  A
C326       C1252   1.493       .  S
O327       Zr328   2.436       .  S
O327        H356   0.990       .  S
Zr328       O331   2.434       .  S
Zr328       O332   2.439       .  S
Zr328       O333   2.422       .  S
O329        C334   1.278       .  A
O330        H347   0.990       .  S
O330        H362   0.990       .  S
O331        H348   0.990       .  S
O332        H352   0.990       .  S
O332        H361   0.990       .  S
O333        C334   1.281       .  A
C334       C1405   1.475       .  S
O335        H354   0.990       .  S
O335        H358   0.990       .  S
O336        H350   0.990       .  S
O336        H357   0.990       .  S
O337        C341   1.267       .  A
O338        C341   1.291       .  A
O339        H349   0.990       .  S
O340        H353   0.990       .  S
C341       C1216   1.509       .  S
C364        C365   1.386       .  A
C364        C369   1.415       .  A
C364       C1168   1.478       .  S
C365        C366   1.387   1_554  A
C365        H370   1.087       .  S
C366        C367   1.433       .  A
C366        C997   1.503       .  S
C367        C368   1.434   1_556  A
C367        H371   1.080       .  S
C368        C369   1.417       .  A
C368        C787   1.520       .  S
C369        H372   1.083       .  S
Zr373       O374   2.438       .  S
Zr373       O375   2.400       .  S
Zr373       O376   2.368       .  S
Zr373       O379   2.380       .  S
Zr373       O381   2.387       .  S
Zr373       O382   2.398       .  S
Zr373       O383   2.419       .  S
Zr373       O384   2.395       .  S
O374        H430   0.988       .  S
O374        H438   0.989       .  S
O375        C395   1.278       .  A
O376        C397   1.257       .  A
O377       Zr387   2.535       .  S
O377        C396   1.296       .  A
O378       Zr386   2.537       .  S
O378        C397   1.296       .  A
O379        C396   1.266       .  A
O380       Zr388   2.415       .  S
O380        C395   1.279       .  A
O381       Zr386   2.385       .  S
O381       Zr388   2.371       .  S
O382       Zr387   2.401       .  S
O382       Zr388   2.370       .  S
O382        H417   0.966       .  S
O383       Zr386   2.418       .  S
O383       Zr403   2.385       .  S
O383        H420   0.967       .  S
O384       Zr387   2.425       .  S
O384       Zr403   2.406       .  S
Zr385       O410   2.433       .  S
Zr385       O404   2.356       .  S
Zr385       O412   2.361       .  S
Zr385       O400   2.386       .  S
Zr385       O391   2.395       .  S
Zr385       O392   2.403       .  S
Zr385       O394   2.384       .  S
Zr385       O393   2.251       .  S
Zr386       O405   2.438       .  S
Zr386       O398   2.432       .  S
Zr386       O399   2.519       .  S
Zr386       O392   2.422       .  S
Zr386       O393   2.301       .  S
Zr387       O389   2.434       .  S
Zr387       O411   2.437       .  S
Zr387       O413   2.542       .  S
Zr387       O391   2.401       .  S
Zr387       O394   2.406       .  S
Zr388       O414   2.437       .  S
Zr388       O415   2.435       .  S
Zr388       O390   2.437       .  S
Zr388       O391   2.396       .  S
Zr388       O392   2.384       .  S
O389        H426   0.990       .  S
O390        H421   0.990       .  S
O390        H435   0.990       .  S
O392        H418   0.964       .  S
O393       Zr403   2.273       .  S
O394       Zr403   2.362       .  S
O394        H419   0.964       .  S
C395       C1276   1.462       .  S
C396       C1000   1.516       .  S
C397       C1321   1.502       .  S
O398        H434   0.990       .  S
O399        C401   1.295       .  A
O400        C401   1.263       .  A
C401        C961   1.494       .  S
O402       Zr403   2.431       .  S
O402        H431   0.990       .  S
Zr403       O406   2.436       .  S
Zr403       O407   2.437       .  S
Zr403       O408   2.447       .  S
O404        C409   1.271       .  A
O405        H422   0.990       .  S
O405        H437   0.990       .  S
O406        H423   0.990       .  S
O407        H427   0.990       .  S
O407        H436   0.990       .  S
O408        C409   1.283       .  A
C409        C976   1.446       .  S
O410        H429   0.988       .  S
O410        H433   0.990       .  S
O411        H425   0.990       .  S
O411        H432   0.990       .  S
O412        C416   1.257       .  A
O413        C416   1.300       .  A
O414        H424   0.990       .  S
O415        H428   0.990       .  S
C416        C985   1.494       .  S
Zr439       O440   2.437       .  S
Zr439       O441   2.415       .  S
Zr439       O442   2.377       .  S
Zr439       O445   2.395       .  S
Zr439       O447   2.382       .  S
Zr439       O448   2.392       .  S
Zr439       O449   2.420       .  S
Zr439       O450   2.394       .  S
O440        H496   0.989       .  S
O440        H504   0.990       .  S
O441        C461   1.281       .  A
O442        C463   1.264       .  A
O443       Zr453   2.467       .  S
O443        C462   1.283       .  A
O444       Zr452   2.514       .  S
O444        C463   1.292       .  A
O445        C462   1.269       .  A
O446       Zr454   2.403       .  S
O446        C461   1.279       .  A
O447       Zr452   2.399       .  S
O447       Zr454   2.371       .  S
O448       Zr453   2.412       .  S
O448       Zr454   2.367       .  S
O448        H483   0.965       .  S
O449       Zr452   2.419       .  S
O449       Zr469   2.375       .  S
O449        H486   0.966       .  S
O450       Zr453   2.419       .  S
O450       Zr469   2.391       .  S
Zr451       O476   2.441       .  S
Zr451       O470   2.410       .  S
Zr451       O478   2.396       .  S
Zr451       O466   2.394       .  S
Zr451       O457   2.384       .  S
Zr451       O458   2.403       .  S
Zr451       O459   2.383       .  S
Zr451       O460   2.385       .  S
Zr452       O471   2.436       .  S
Zr452       O464   2.436       .  S
Zr452       O465   2.515       .  S
Zr452       O458   2.421       .  S
Zr452       O459   2.388       .  S
Zr453       O455   2.435       .  S
Zr453       O477   2.434       .  S
Zr453       O479   2.481       .  S
Zr453       O457   2.404       .  S
Zr453       O460   2.399       .  S
Zr454       O480   2.434       .  S
Zr454       O481   2.435       .  S
Zr454       O456   2.436       .  S
Zr454       O457   2.398       .  S
Zr454       O458   2.381       .  S
O455        H492   0.990       .  S
O456        H487   0.990       .  S
O456        H501   0.990       .  S
O458        H484   0.965       .  S
O459       Zr469   2.350       .  S
O460       Zr469   2.358       .  S
O460        H485   0.964       .  S
C461       C1264   1.458       .  S
C462       C1300   1.490       .  S
C463       C1372   1.496       .  S
O464        H500   0.990       .  S
O465        C467   1.296       .  A
O466        C467   1.266       .  A
C467        C937   1.506       .  S
O468       Zr469   2.435       .  S
O468        H497   0.990       .  S
Zr469       O472   2.436       .  S
Zr469       O473   2.438       .  S
Zr469       O474   2.411       .  S
O470        C475   1.280       .  A
O471        H488   0.990       .  S
O471        H503   0.990       .  S
O472        H489   0.990       .  S
O473        H493   0.990       .  S
O473        H502   0.990       .  S
O474        C475   1.281       .  A
C475        C949   1.465       .  S
O476        H495   0.990       .  S
O476        H499   0.990       .  S
O477        H491   0.990       .  S
O477        H498   0.990       .  S
O478        C482   1.277       .  A
O479        C482   1.294       .  A
O480        H490   0.989       .  S
O481        H494   0.990       .  S
C482        C925   1.483       .  S
Zr505       O506   2.444       .  S
Zr505       O507   2.411       .  S
Zr505       O508   2.366       .  S
Zr505       O511   2.382       .  S
Zr505       O513   2.376       .  S
Zr505       O514   2.391       .  S
Zr505       O515   2.401       .  S
Zr505       O516   2.397       .  S
O506        H562   0.991       .  S
O506        H570   0.991       .  S
O507        C527   1.278       .  A
O508        C529   1.267       .  A
O509       Zr519   2.488       .  S
O509        C528   1.283       .  A
O510       Zr518   2.521       .  S
O510        C529   1.299       .  A
O511        C528   1.263       .  A
O512       Zr520   2.417       .  S
O512        C527   1.280       .  A
O513       Zr518   2.397       .  S
O513       Zr520   2.380       .  S
O514       Zr519   2.415       .  S
O514       Zr520   2.366       .  S
O514        H549   0.966       .  S
O515       Zr518   2.404       .  S
O515       Zr535   2.396       .  S
O515        H552   0.966       .  S
O516       Zr519   2.422       .  S
O516       Zr535   2.390       .  S
Zr517       O542   2.438       .  S
Zr517       O536   2.424       .  S
Zr517       O544   2.391       .  S
Zr517       O532   2.377       .  S
Zr517       O523   2.400       .  S
Zr517       O524   2.428       .  S
Zr517       O525   2.385       .  S
Zr517       O526   2.393       .  S
Zr518       O537   2.436       .  S
Zr518       O530   2.434       .  S
Zr518       O531   2.508       .  S
Zr518       O524   2.414       .  S
Zr518       O525   2.401       .  S
Zr519       O521   2.434       .  S
Zr519       O543   2.434       .  S
Zr519       O545   2.498       .  S
Zr519       O523   2.410       .  S
Zr519       O526   2.410       .  S
Zr520       O546   2.436       .  S
Zr520       O547   2.435       .  S
Zr520       O522   2.438       .  S
Zr520       O523   2.396       .  S
Zr520       O524   2.385       .  S
O521        H558   0.990       .  S
O522        H553   0.990       .  S
O522        H567   0.990       .  S
O524        H550   0.966       .  S
O525       Zr535   2.370       .  S
O526       Zr535   2.377       .  S
O526        H551   0.964       .  S
C527       C1348   1.464       .  S
C528       C1312   1.492       .  S
C529       C1393   1.486       .  S
O530        H566   0.990       .  S
O531        C533   1.293       .  A
O532        C533   1.261       .  A
C533        C901   1.487       .  S
O534       Zr535   2.436       .  S
O534        H563   0.990       .  S
Zr535       O538   2.437       .  S
Zr535       O539   2.436       .  S
Zr535       O540   2.415       .  S
O536        C541   1.280       .  A
O537        H554   0.990       .  S
O537        H569   0.990       .  S
O538        H555   0.990       .  S
O539        H559   0.991       .  S
O539        H568   0.990       .  S
O540        C541   1.280       .  A
C541        C913   1.461       .  S
O542        H561   0.990       .  S
O542        H565   0.989       .  S
O543        H557   0.990       .  S
O543        H564   0.990       .  S
O544        C548   1.270       .  A
O545        C548   1.287       .  A
O546        H556   0.990       .  S
O547        H560   0.990       .  S
C548        C889   1.506       .  S
Zr571       O572   2.441       .  S
Zr571       O573   2.429       .  S
Zr571       O574   2.401       .  S
Zr571       O577   2.399       .  S
Zr571       O579   2.384       .  S
Zr571       O580   2.394       .  S
Zr571       O581   2.418       .  S
Zr571       O582   2.403       .  S
O572        H628   0.990       .  S
O572        H636   0.990       .  S
O573        C593   1.284       .  A
O574        C595   1.270       .  A
O575       Zr585   2.496       .  S
O575        C594   1.291       .  A
O576       Zr584   2.488       .  S
O576        C595   1.290       .  A
O577        C594   1.270       .  A
O578       Zr586   2.411       .  S
O578        C593   1.279       .  A
O579       Zr584   2.418       .  S
O579       Zr586   2.375       .  S
O580       Zr585   2.406       .  S
O580       Zr586   2.363       .  S
O580        H615   0.963       .  S
O581       Zr584   2.420       .  S
O581       Zr601   2.389       .  S
O581        H618   0.966       .  S
O582       Zr585   2.414       .  S
O582       Zr601   2.397       .  S
Zr583       O608   2.443       .  S
Zr583       O602   2.383       .  S
Zr583       O610   2.362       .  S
Zr583       O598   2.384       .  S
Zr583       O589   2.383       .  S
Zr583       O590   2.387       .  S
Zr583       O591   2.371       .  S
Zr583       O592   2.385       .  S
Zr584       O603   2.436       .  S
Zr584       O596   2.434       .  S
Zr584       O597   2.539       .  S
Zr584       O590   2.409       .  S
Zr584       O591   2.376       .  S
Zr585       O587   2.434       .  S
Zr585       O609   2.435       .  S
Zr585       O611   2.505       .  S
Zr585       O589   2.416       .  S
Zr585       O592   2.387       .  S
Zr586       O612   2.435       .  S
Zr586       O613   2.435       .  S
Zr586       O588   2.438       .  S
Zr586       O589   2.399       .  S
Zr586       O590   2.382       .  S
O587        H624   0.990       .  S
O588        H619   0.990       .  S
O588        H633   0.990       .  S
O590        H616   0.966       .  S
O591       Zr601   2.358       .  S
O592       Zr601   2.370       .  S
O592        H617   0.964       .  S
C593       C1288   1.479       .  S
C594       C1336   1.501       .  S
C595       C1417   1.476       .  S
O596        H632   0.990       .  S
O597        C599   1.298       .  A
O598        C599   1.265       .  A
C599        C865   1.511       .  S
O600       Zr601   2.435       .  S
O600        H629   0.990       .  S
Zr601       O604   2.435       .  S
Zr601       O605   2.438       .  S
Zr601       O606   2.430       .  S
O602        C607   1.275       .  A
O603        H620   0.990       .  S
O603        H635   0.990       .  S
O604        H621   0.990       .  S
O605        H625   0.990       .  S
O605        H634   0.990       .  S
O606        C607   1.284       .  A
C607        C877   1.469       .  S
O608        H627   0.990       .  S
O608        H631   0.990       .  S
O609        H623   0.990       .  S
O609        H630   0.990       .  S
O610        C614   1.272       .  A
O611        C614   1.298       .  A
O612        H622   0.990       .  S
O613        H626   0.990       .  S
C614        C853   1.471       .  S
C637        C638   1.394       .  A
C637        C642   1.394       .  A
C637        C880   1.472       .  S
C638        C639   1.402       .  A
C638        H643   1.085       .  S
C639        C640   1.423       .  A
C639        C810   1.492       .  S
C640        C641   1.428       .  A
C640        H644   1.081       .  S
C641        C642   1.396       .  A
C641        C940   1.500       .  S
C642        H645   1.084       .  S
C646        C647   1.408       .  A
C646        C651   1.391       .  A
C646        C973   1.464       .  S
C647        C648   1.405       .  A
C647        H652   1.084       .  S
C648        C649   1.404       .  A
C648        C812   1.461       .  S
C649        C650   1.395       .  A
C649        H653   1.085       .  S
C650        C651   1.392       .  A
C650        C952   1.469       .  S
C651        H654   1.085       .  S
C655        C656   1.421       .  A
C655        C660   1.386       .  A
C655        C904   1.486       .  S
C656        C657   1.424       .  A
C656        H661   1.083       .  S
C657        C658   1.433       .  A
C657        C811   1.521       .  S
C658        C659   1.425       .  A
C658        H662   1.083       .  S
C659        C660   1.385       .  A
C659        C988   1.503       .  S
C660        H663   1.086       .  S
C664        C665   1.401       .  A
C664        C669   1.399       .  A
C664        C916   1.481       .  S
C665        C666   1.399       .  A
C665        H670   1.084       .  S
C666        C667   1.429       .  A
C666        C868   1.504       .  S
C667        C668   1.428       .  A
C667        H671   1.083       .  S
C668        C669   1.397       .  A
C668        C813   1.496       .  S
C669        H672   1.083       .  S
C673        C674   1.392       .  A
C673        C678   1.426       .  A
C673       C1072   1.503       .  S
C674        C675   1.393       .  A
C674        H679   1.087       .  S
C675        C676   1.417       .  A
C675       C1141   1.494       .  S
C676        C677   1.424       .  A
C676        H680   1.083       .  S
C677        C678   1.432       .  A
C677        C841   1.517       .  S
C678        H681   1.083       .  S
C682        C683   1.405       .  A
C682        C687   1.406       .  A
C682       C1057   1.493       .  S
C683        C684   1.402       .  A
C683        H688   1.083       .  S
C684        C685   1.420       .  A
C684       C1036   1.500       .  S
C685        C686   1.415       .  A
C685        H689   1.082       .  S
C686        C687   1.403       .  A
C686        C848   1.488       .  S
C687        H690   1.082       .  S
C691        C692   1.424       .  A
C691        C696   1.392       .  A
C691       C1024   1.505       .  S
C692        C693   1.427       .  A
C692        H697   1.083       .  S
C693        C694   1.427       .  A
C693        C842   1.519       .  S
C694        C695   1.423       .  A
C694        H698   1.081       .  S
C695        C696   1.398       .  A
C695       C1105   1.517       .  S
C696        H699   1.083       .  S
C700        C701   1.393       .  A
C700        C705   1.398       .  A
C700       C1153   1.473       .  S
C701        C702   1.394       .  A
C701        H706   1.084       .  S
C702        C703   1.429       .  A
C702       C1096   1.501       .  S
C703        C704   1.430       .  A
C703        H707   1.083       .  S
C704        C705   1.401       .  A
C704        C847   1.495       .  S
C705        H708   1.085       .  S
C709        C710   1.395       .  A
C709        C714   1.398       .  A
C709       C1012   1.476       .  S
C710        C711   1.399       .  A
C710        H715   1.085       .  S
C711        C712   1.418       .  A
C711        C845   1.475       .  S
C712        C713   1.419       .  A
C712        H716   1.083       .  S
C713        C714   1.399       .  A
C713        C856   1.501       .  S
C714        H717   1.082       .  S
C718        C719   1.422       .  A
C718        C723   1.392       .  A
C718       C1048   1.496       .  S
C719        C720   1.422       .  A
C719        H724   1.079       .  S
C720        C721   1.424       .  A
C720        C844   1.516       .  S
C721        C722   1.419       .  A
C721        H725   1.083       .  S
C722        C723   1.397       .  A
C722        C892   1.493       .  S
C723        H726   1.086       .  S
C727        C728   1.395       .  A
C727        C732   1.397       .  A
C727       C1084   1.474       .  S
C728        C729   1.394       .  A
C728        H733   1.084       .  S
C729        C730   1.416       .  A
C729        C928   1.478       .  S
C730        C731   1.413       .  A
C730        H734   1.081       .  S
C731        C732   1.403       .  A
C731        C846   1.481       .  S
C732        H735   1.085       .  S
C736        C737   1.428       .  A
C736        C741   1.390       .  A
C736       C1132   1.503       .  S
C737        C738   1.431       .  A
C737        H742   1.083       .  S
C738        C739   1.430       .  A
C738        C843   1.527       .  S
C739        C740   1.423       .  A
C739        H743   1.083       .  S
C740        C741   1.392       .  A
C740        C964   1.509       .  S
C741        H744   1.085       .  S
O745       Zr781   2.475   1_565  S
O745        C756   1.302       .  A
O746       Zr780   2.426   1_565  S
O746        C757   1.288   1_554  A
O747       Zr753   2.474       .  S
O747        C758   1.297       .  A
O748       Zr753   2.444   1_554  S
O748        C759   1.292       .  A
O749       Zr783   2.534   1_565  S
O749        C759   1.310       .  A
O750       Zr782   2.423   1_565  S
O750        C758   1.288       .  A
O751       Zr753   2.476   1_455  S
O751        C757   1.298       .  A
O752       Zr753   2.440       .  S
O752        C756   1.291       .  A
Zr753       O754   2.351   1_556  S
Zr753       O755   2.352       .  S
Zr753       O763   2.379   1_556  S
Zr753       O761   2.322       .  S
O754       Zr780   2.347   1_665  S
O754       Zr783   2.356   1_565  S
O755       Zr781   2.346   1_565  S
O755       Zr782   2.318   1_565  S
H760        O761   0.965       .  S
O761       Zr780   2.349   1_666  S
O761       Zr782   2.350   1_565  S
H762        O763   0.966       .  S
O763       Zr781   2.358   1_564  S
O763       Zr783   2.343   1_565  S
O764       Zr780   2.459       .  S
O764        C787   1.295       .  A
O765       Zr781   2.500       .  S
O765        C788   1.305   1_556  A
O766       Zr782   2.403       .  S
O766        C789   1.284   1_655  A
O767       Zr783   2.451   1_565  S
O767        C790   1.292   1_665  A
O768       Zr783   2.484   1_565  S
O768        C791   1.300       .  A
O769       Zr782   2.474       .  S
O769        C792   1.298       .  A
O770       Zr784   2.560   1_556  S
O770        C793   1.315       .  A
O771       Zr784   2.524       .  S
O771        C794   1.310       .  A
O772       Zr782   2.425       .  S
O772        C793   1.288       .  A
O773       Zr783   2.487       .  S
O773        C794   1.302       .  A
O774       Zr780   2.436   1_556  S
O774        C789   1.291       .  A
O775       Zr781   2.449   1_565  S
O775        C792   1.291   1_565  A
O776       Zr781   2.453   1_564  S
O776        C791   1.294       .  A
O777       Zr780   2.484       .  S
O777        C790   1.301       .  A
O778       Zr784   2.532       .  S
O778        C787   1.309   1_655  A
O779       Zr784   2.510       .  S
O779        C788   1.307       .  A
Zr780       O786   2.347   1_454  S
Zr780       O798   2.336   1_455  S
Zr781       O785   2.358   1_556  S
Zr781       O796   2.367       .  S
Zr782       O786   2.350       .  S
Zr782       O796   2.337       .  S
Zr783       O785   2.373       .  S
Zr783       O798   2.395       .  S
Zr784       O785   2.397       .  S
Zr784       O786   2.334   1_554  S
Zr784       O798   2.391       .  S
Zr784       O796   2.385   1_554  S
H795        O796   0.965       .  S
H797        O798   0.966       .  S
O799       Zr835   2.484       .  S
O799        C810   1.298       .  A
O800       Zr834   2.545       .  S
O800        C811   1.313       .  A
O801       Zr807   2.423       .  S
O801        C812   1.289       .  A
O802       Zr807   2.471       .  S
O802        C813   1.297       .  A
O803       Zr837   2.475       .  S
O803        C813   1.297       .  A
O804       Zr836   2.448       .  S
O804        C812   1.292       .  A
O805       Zr807   2.451       .  S
O805        C811   1.294       .  A
O806       Zr807   2.439       .  S
O806        C810   1.293       .  A
Zr807       O808   2.346       .  S
Zr807       O809   2.339       .  S
Zr807       O817   2.337       .  S
Zr807       O815   2.358       .  S
O808       Zr834   2.379       .  S
O808       Zr837   2.366       .  S
O809       Zr835   2.325       .  S
O809       Zr836   2.344       .  S
H814        O815   0.965       .  S
O815       Zr834   2.353       .  S
O815       Zr836   2.355       .  S
H816        O817   0.965       .  S
O817       Zr835   2.357       .  S
O817       Zr837   2.353       .  S
O818       Zr834   2.516       .  S
O818        C841   1.308       .  A
O819       Zr835   2.461       .  S
O819        C842   1.296       .  A
O820       Zr836   2.463       .  S
O820        C843   1.296       .  A
O821       Zr837   2.482       .  S
O821        C844   1.300       .  A
O822       Zr837   2.470       .  S
O822        C845   1.299       .  A
O823       Zr836   2.422       .  S
O823        C846   1.290       .  A
O824       Zr838   2.465       .  S
O824        C847   1.295       .  A
O825       Zr838   2.460       .  S
O825        C848   1.295       .  A
O826       Zr836   2.479       .  S
O826        C847   1.300       .  A
O827       Zr837   2.469       .  S
O827        C848   1.297       .  A
O828       Zr834   2.547       .  S
O828        C843   1.313       .  A
O829       Zr835   2.473       .  S
O829        C846   1.297       .  A
O830       Zr835   2.435       .  S
O830        C845   1.290       .  A
O831       Zr834   2.514       .  S
O831        C844   1.307       .  A
O832       Zr838   2.487       .  S
O832        C841   1.302       .  A
O833       Zr838   2.528       .  S
O833        C842   1.308       .  A
Zr834       O840   2.383       .  S
Zr834       O852   2.396       .  S
Zr835       O839   2.371       .  S
Zr835       O850   2.355       .  S
Zr836       O840   2.345       .  S
Zr836       O850   2.353       .  S
Zr837       O839   2.360       .  S
Zr837       O852   2.364       .  S
Zr838       O839   2.349       .  S
Zr838       O840   2.385       .  S
Zr838       O852   2.377       .  S
Zr838       O850   2.352       .  S
H849        O850   0.965       .  S
H851        O852   0.966       .  S
C853        C854   1.399       .  A
C853        C858   1.413       .  A
C854        C855   1.396       .  A
C854        H859   1.085       .  S
C855        C856   1.418       .  A
C855        O860   1.372       .  S
C856        C857   1.407       .  A
C857        C858   1.411       .  A
C857        H861   1.083       .  S
C858        O862   1.371       .  S
O860        H864   0.992       .  S
O862        H863   0.992       .  S
C865        C866   1.409       .  A
C865        C870   1.421       .  A
C866        C867   1.420       .  A
C866        H871   1.083       .  S
C867        C868   1.418       .  A
C867        O872   1.371       .  S
C868        C869   1.399       .  A
C869        C870   1.406       .  A
C869        H873   1.084       .  S
C870        O874   1.372       .  S
O872        H876   0.992       .  S
O874        H875   0.992       .  S
C877        C878   1.402       .  A
C877        C882   1.413       .  A
C878        C879   1.398       .  A
C878        H883   1.084       .  S
C879        C880   1.408       .  A
C879        O884   1.374       .  S
C880        C881   1.400       .  A
C881        C882   1.387       .  A
C881        H885   1.084       .  S
C882        O886   1.373       .  S
O884        H888   0.992       .  S
O886        H887   0.992       .  S
C889        C890   1.407       .  A
C889        C894   1.417       .  A
C890        C891   1.394       .  A
C890        H895   1.083       .  S
C891        C892   1.406       .  A
C891        O896   1.373       .  S
C892        C893   1.410       .  A
C893        C894   1.421       .  A
C893        H897   1.083       .  S
C894        O898   1.371       .  S
O896        H900   0.992       .  S
O898        H899   0.992       .  S
C901        C902   1.401       .  A
C901        C906   1.419       .  A
C902        C903   1.407       .  A
C902        H907   1.083       .  S
C903        C904   1.418       .  A
C903        O908   1.375       .  S
C904        C905   1.398       .  A
C905        C906   1.402       .  A
C905        H909   1.084       .  S
C906        O910   1.372       .  S
O908        H912   0.991       .  S
O910        H911   0.992       .  S
C913        C914   1.397       .  A
C913        C918   1.404       .  A
C914        C915   1.398       .  A
C914        H919   1.080       .  S
C915        C916   1.412       .  A
C915        O920   1.373       .  S
C916        C917   1.406       .  A
C917        C918   1.395       .  A
C917        H921   1.083       .  S
C918        O922   1.372       .  S
O920        H924   0.992       .  S
O922        H923   0.991       .  S
C925        C926   1.406       .  A
C925        C930   1.415       .  A
C926        C927   1.405       .  A
C926        H931   1.084       .  S
C927        C928   1.411       .  A
C927        O932   1.372       .  S
C928        C929   1.398       .  A
C929        C930   1.401       .  A
C929        H933   1.084       .  S
C930        O934   1.373       .  S
O932        H936   0.992       .  S
O934        H935   0.992       .  S
C937        C938   1.404       .  A
C937        C942   1.426       .  A
C938        C939   1.409       .  A
C938        H943   1.083       .  S
C939        C940   1.420       .  A
C939        O944   1.372       .  S
C940        C941   1.397       .  A
C941        C942   1.405       .  A
C941        H945   1.084       .  S
C942        O946   1.371       .  S
O944        H948   0.991       .  S
O946        H947   0.992       .  S
C949        C950   1.401       .  A
C949        C954   1.409       .  A
C950        C951   1.390       .  A
C950        H955   1.084       .  S
C951        C952   1.408       .  A
C951        O956   1.372       .  S
C952        C953   1.399       .  A
C953        C954   1.394       .  A
C953        H957   1.081       .  S
C954        O958   1.369       .  S
O956        H960   0.992       .  S
O958        H959   0.989       .  S
C961        C962   1.414       .  A
C961        C966   1.405       .  A
C962        C963   1.410       .  A
C962        H967   1.083       .  S
C963        C964   1.409       .  A
C963        O968   1.371       .  S
C964        C965   1.416       .  A
C965        C966   1.406       .  A
C965        H969   1.083       .  S
C966        O970   1.373       .  S
O968        H972   0.992       .  S
O970        H971   0.992       .  S
C973        C974   1.399       .  A
C973        C978   1.409       .  A
C974        C975   1.397       .  A
C974        H979   1.083       .  S
C975        C976   1.408       .  A
C975        O980   1.373       .  S
C976        C977   1.396       .  A
C977        C978   1.391       .  A
C977        H981   1.084       .  S
C978        O982   1.372       .  S
O980        H984   0.992       .  S
O982        H983   0.992       .  S
C985        C986   1.416       .  A
C985        C990   1.406       .  A
C986        C987   1.409       .  A
C986        H991   1.084       .  S
C987        C988   1.405       .  A
C987        O992   1.371       .  S
C988        C989   1.417       .  A
C989        C990   1.409       .  A
C989        H993   1.084       .  S
C990        O994   1.371       .  S
O992        H996   0.992       .  S
O994        H995   0.992       .  S
C997        C998   1.402       .  A
C997       C1002   1.420       .  A
C998        C999   1.408       .  A
C998       H1003   1.084       .  S
C999       C1000   1.422       .  A
C999       O1004   1.372       .  S
C1000      C1001   1.408       .  A
C1001      C1002   1.420       .  A
C1001      H1005   1.083       .  S
C1002      O1006   1.372       .  S
O1004      H1008   0.992       .  S
O1006      H1007   0.992       .  S
C1009      C1010   1.397       .  A
C1009      C1014   1.400       .  A
C1010      C1011   1.398       .  A
C1010      H1015   1.081       .  S
C1011      C1012   1.413       .  A
C1011      O1016   1.371       .  S
C1012      C1013   1.403       .  A
C1013      C1014   1.387       .  A
C1013      H1017   1.083       .  S
C1014      O1018   1.372       .  S
O1016      H1020   0.992       .  S
O1018      H1019   0.992       .  S
C1021      C1022   1.415       .  A
C1021      C1026   1.410       .  A
C1022      C1023   1.409       .  A
C1022      H1027   1.080       .  S
C1023      C1024   1.407       .  A
C1023      O1028   1.372       .  S
C1024      C1025   1.414       .  A
C1025      C1026   1.413       .  A
C1025      H1029   1.084       .  S
C1026      O1030   1.371       .  S
O1028      H1032   0.992       .  S
O1030      H1031   0.992       .  S
C1033      C1034   1.413       .  A
C1033      C1038   1.409       .  A
C1034      C1035   1.400       .  A
C1034      H1039   1.078       .  S
C1035      C1036   1.404       .  A
C1035      O1040   1.372       .  S
C1036      C1037   1.416       .  A
C1037      C1038   1.416       .  A
C1037      H1041   1.083       .  S
C1038      O1042   1.371       .  S
O1040      H1044   0.992       .  S
O1042      H1043   0.992       .  S
C1045      C1046   1.408       .  A
C1045      C1050   1.417       .  A
C1046      C1047   1.415       .  A
C1046      H1051   1.083       .  S
C1047      C1048   1.415       .  A
C1047      O1052   1.371       .  S
C1048      C1049   1.401       .  A
C1049      C1050   1.404       .  A
C1049      H1053   1.084       .  S
C1050      O1054   1.372       .  S
O1052      H1056   0.991       .  S
O1054      H1055   0.992       .  S
C1057      C1058   1.408       .  A
C1057      C1062   1.412       .  A
C1058      C1059   1.398       .  A
C1058      H1063   1.083       .  S
C1059      C1060   1.406       .  A
C1059      O1064   1.372       .  S
C1060      C1061   1.401       .  A
C1061      C1062   1.399       .  A
C1061      H1065   1.083       .  S
C1062      O1066   1.368       .  S
O1064      H1068   0.992       .  S
O1066      H1067   0.991       .  S
C1069      C1070   1.414       .  A
C1069      C1074   1.414       .  A
C1070      C1071   1.422       .  A
C1070      H1075   1.083       .  S
C1071      C1072   1.415       .  A
C1071      O1076   1.371       .  S
C1072      C1073   1.405       .  A
C1073      C1074   1.401       .  A
C1073      H1077   1.084       .  S
C1074      O1078   1.372       .  S
O1076      H1080   0.992       .  S
O1078      H1079   0.992       .  S
C1081      C1082   1.403       .  A
C1081      C1086   1.413       .  A
C1082      C1083   1.401       .  A
C1082      H1087   1.083       .  S
C1083      C1084   1.409       .  A
C1083      O1088   1.374       .  S
C1084      C1085   1.400       .  A
C1085      C1086   1.387       .  A
C1085      H1089   1.084       .  S
C1086      O1090   1.374       .  S
O1088      H1092   0.992       .  S
O1090      H1091   0.990       .  S
C1093      C1094   1.414       .  A
C1093      C1098   1.410       .  A
C1094      C1095   1.410       .  A
C1094      H1099   1.083       .  S
C1095      C1096   1.407       .  A
C1095      O1100   1.371       .  S
C1096      C1097   1.412       .  A
C1097      C1098   1.408       .  A
C1097      H1101   1.084       .  S
C1098      O1102   1.371       .  S
O1100      H1104   0.992       .  S
O1102      H1103   0.991       .  S
C1105      C1106   1.419       .  A
C1105      C1110   1.414       .  A
C1106      C1107   1.395       .  A
C1106      H1111   1.082       .  S
C1107      C1108   1.397       .  A
C1107      O1112   1.373       .  S
C1108      C1109   1.412       .  A
C1109      C1110   1.415       .  A
C1109      H1113   1.084       .  S
C1110      O1114   1.371       .  S
O1112      H1116   0.991       .  S
O1114      H1115   0.991       .  S
C1117      C1118   1.398       .  A
C1117      C1122   1.420       .  A
C1118      C1119   1.405       .  A
C1118      H1123   1.084       .  S
C1119      C1120   1.422       .  A
C1119      O1124   1.373       .  S
C1120      C1121   1.404       .  A
C1121      C1122   1.414       .  A
C1121      H1125   1.083       .  S
C1122      O1126   1.372       .  S
O1124      H1128   0.992       .  S
O1126      H1127   0.992       .  S
C1129      C1130   1.415       .  A
C1129      C1134   1.410       .  A
C1130      C1131   1.410       .  A
C1130      H1135   1.083       .  S
C1131      C1132   1.405       .  A
C1131      O1136   1.371       .  S
C1132      C1133   1.415       .  A
C1133      C1134   1.410       .  A
C1133      H1137   1.084       .  S
C1134      O1138   1.371       .  S
O1136      H1140   0.992       .  S
O1138      H1139   0.992       .  S
C1141      C1142   1.404       .  A
C1141      C1146   1.411       .  A
C1142      C1143   1.395       .  A
C1142      H1147   1.085       .  S
C1143      C1144   1.412       .  A
C1143      O1148   1.373       .  S
C1144      C1145   1.411       .  A
C1145      C1146   1.417       .  A
C1145      H1149   1.082       .  S
C1146      O1150   1.371       .  S
O1148      H1152   0.992       .  S
O1150      H1151   0.992       .  S
C1153      C1154   1.402       .  A
C1153      C1158   1.411       .  A
C1154      C1155   1.394       .  A
C1154      H1159   1.084       .  S
C1155      C1156   1.404       .  A
C1155      O1160   1.367       .  S
C1156      C1157   1.398       .  A
C1157      C1158   1.394       .  A
C1157      H1161   1.084       .  S
C1158      O1162   1.374       .  S
O1160      H1164   0.992       .  S
O1162      H1163   0.992       .  S
C1165      C1166   1.406       .  A
C1165      C1170   1.419       .  A
C1166      C1167   1.409       .  A
C1166      H1171   1.083       .  S
C1167      C1168   1.413       .  A
C1167      O1172   1.371       .  S
C1168      C1169   1.397       .  A
C1169      C1170   1.400       .  A
C1169      H1173   1.084       .  S
C1170      O1174   1.377       .  S
O1172      H1176   0.992       .  S
O1174      H1175   0.992       .  S
C1177      C1178   1.405       .  A
C1177      C1182   1.416       .  A
C1178      C1179   1.394       .  A
C1178      H1183   1.083       .  S
C1179      C1180   1.403       .  A
C1179      O1184   1.367       .  S
C1180      C1181   1.397       .  A
C1181      C1182   1.395       .  A
C1181      H1185   1.084       .  S
C1182      O1186   1.374       .  S
O1184      H1188   0.992       .  S
O1186      H1187   0.992       .  S
C1189      C1190   1.408       .  A
C1189      C1194   1.406       .  A
C1190      C1191   1.413       .  A
C1190      H1195   1.083       .  S
C1191      C1192   1.413       .  A
C1191      O1196   1.371       .  S
C1192      C1193   1.408       .  A
C1193      C1194   1.393       .  A
C1193      H1197   1.083       .  S
C1194      O1198   1.373       .  S
O1196      H1200   0.991       .  S
O1198      H1199   0.992       .  S
C1201      C1202   1.408       .  A
C1201      C1206   1.414   1_655  A
C1202      C1203   1.403   1_655  A
C1202      H1207   1.084       .  S
C1203      C1204   1.413       .  A
C1203      O1208   1.372   1_455  S
C1204      C1205   1.414       .  A
C1205      C1206   1.421       .  A
C1205      H1209   1.083       .  S
C1206      O1210   1.371       .  S
O1208      H1212   0.992       .  S
O1210      H1211   0.992       .  S
C1213      C1214   1.411       .  A
C1213      C1218   1.406       .  A
C1214      C1215   1.419       .  A
C1214      H1219   1.083       .  S
C1215      C1216   1.414       .  A
C1215      O1220   1.371       .  S
C1216      C1217   1.412       .  A
C1217      C1218   1.407       .  A
C1217      H1221   1.084       .  S
C1218      O1222   1.372       .  S
O1220      H1224   0.992       .  S
O1222      H1223   0.992       .  S
C1225      C1226   1.404       .  A
C1225      C1230   1.409       .  A
C1226      C1227   1.403       .  A
C1226      H1231   1.084       .  S
C1227      C1228   1.414       .  A
C1227      O1232   1.373       .  S
C1228      C1229   1.409       .  A
C1229      C1230   1.402       .  A
C1229      H1233   1.082       .  S
C1230      O1234   1.368       .  S
O1232      H1236   0.992       .  S
O1234      H1235   0.992       .  S
C1237      C1238   1.417       .  A
C1237      C1242   1.412   1_655  A
C1238      C1239   1.397   1_655  A
C1238      H1243   1.083       .  S
C1239      C1240   1.402       .  A
C1239      O1244   1.373       .  S
C1240      C1241   1.413       .  A
C1241      C1242   1.416       .  A
C1241      H1245   1.084       .  S
C1242      O1246   1.371       .  S
O1244      H1248   0.992       .  S
O1246      H1247   0.992       .  S
C1249      C1250   1.399       .  A
C1249      C1254   1.413       .  A
C1250      C1251   1.397       .  A
C1250      H1255   1.084       .  S
C1251      C1252   1.417       .  A
C1251      O1256   1.372       .  S
C1252      C1253   1.407       .  A
C1253      C1254   1.413       .  A
C1253      H1257   1.083       .  S
C1254      O1258   1.371       .  S
O1256      H1260   0.992       .  S
O1258      H1259   0.992       .  S
C1261      C1262   1.404       .  A
C1261      C1266   1.409       .  A
C1262      C1263   1.393       .  A
C1262      H1267   1.084       .  S
C1263      C1264   1.404       .  A
C1263      O1268   1.372       .  S
C1264      C1265   1.399       .  A
C1265      C1266   1.392       .  A
C1265      H1269   1.081       .  S
C1266      O1270   1.371       .  S
O1268      H1272   0.992       .  S
O1270      H1271   0.992       .  S
C1273      C1274   1.408       .  A
C1273      C1278   1.407       .  A
C1274      C1275   1.398       .  A
C1274      H1279   1.083       .  S
C1275      C1276   1.405       .  A
C1275      O1280   1.371       .  S
C1276      C1277   1.398       .  A
C1277      C1278   1.385       .  A
C1277      H1281   1.082       .  S
C1278      O1282   1.370       .  S
O1280      H1284   0.992       .  S
O1282      H1283   0.991       .  S
C1285      C1286   1.405       .  A
C1285      C1290   1.416       .  A
C1286      C1287   1.398       .  A
C1286      H1291   1.083       .  S
C1287      C1288   1.411       .  A
C1287      O1292   1.373       .  S
C1288      C1289   1.401       .  A
C1289      C1290   1.393       .  A
C1289      H1293   1.083       .  S
C1290      O1294   1.372       .  S
O1292      H1296   0.992       .  S
O1294      H1295   0.991       .  S
C1297      C1298   1.405       .  A
C1297      C1302   1.405       .  A
C1298      C1299   1.406       .  A
C1298      H1303   1.084       .  S
C1299      C1300   1.412       .  A
C1299      O1304   1.371       .  S
C1300      C1301   1.409       .  A
C1301      C1302   1.401       .  A
C1301      H1305   1.083       .  S
C1302      O1306   1.372       .  S
O1304      H1308   0.992       .  S
O1306      H1307   0.992       .  S
C1309      C1310   1.401       .  A
C1309      C1314   1.417       .  A
C1310      C1311   1.402       .  A
C1310      H1315   1.084       .  S
C1311      C1312   1.414       .  A
C1311      O1316   1.372       .  S
C1312      C1313   1.405       .  A
C1313      C1314   1.411       .  A
C1313      H1317   1.083       .  S
C1314      O1318   1.373       .  S
O1316      H1320   0.991       .  S
O1318      H1319   0.992       .  S
C1321      C1322   1.412       .  A
C1321      C1326   1.415       .  A
C1322      C1323   1.422       .  A
C1322      H1327   1.083       .  S
C1323      C1324   1.417   1_455  A
C1323      O1328   1.371       .  S
C1324      C1325   1.405       .  A
C1325      C1326   1.402   1_655  A
C1325      H1329   1.085       .  S
C1326      O1330   1.374   1_455  S
O1328      H1332   0.992       .  S
O1330      H1331   0.991       .  S
C1333      C1334   1.405       .  A
C1333      C1338   1.414       .  A
C1334      C1335   1.416       .  A
C1334      H1339   1.083       .  S
C1335      C1336   1.417       .  A
C1335      O1340   1.373       .  S
C1336      C1337   1.404       .  A
C1337      C1338   1.407       .  A
C1337      H1341   1.083       .  S
C1338      O1342   1.373       .  S
O1340      H1344   0.992       .  S
O1342      H1343   0.992       .  S
C1345      C1346   1.406       .  A
C1345      C1350   1.409       .  A
C1346      C1347   1.392       .  A
C1346      H1351   1.083       .  S
C1347      C1348   1.405       .  A
C1347      O1352   1.372       .  S
C1348      C1349   1.400       .  A
C1349      C1350   1.397       .  A
C1349      H1353   1.079       .  S
C1350      O1354   1.371       .  S
O1352      H1356   0.992       .  S
O1354      H1355   0.992       .  S
C1357      C1358   1.396       .  A
C1357      C1362   1.405       .  A
C1358      C1359   1.396       .  A
C1358      H1363   1.075       .  S
C1359      C1360   1.406       .  A
C1359      O1364   1.369       .  S
C1360      C1361   1.404       .  A
C1361      C1362   1.392       .  A
C1361      H1365   1.084       .  S
C1362      O1366   1.373       .  S
O1364      H1368   0.988       .  S
O1366      H1367   0.992       .  S
C1369      C1370   1.410       .  A
C1369      C1374   1.400       .  A
C1370      C1371   1.416       .  A
C1370      H1375   1.083       .  S
C1371      C1372   1.412       .  A
C1371      O1376   1.370       .  S
C1372      C1373   1.411       .  A
C1373      C1374   1.391       .  A
C1373      H1377   1.083       .  S
C1374      O1378   1.373       .  S
O1376      H1380   0.992       .  S
O1378      H1379   0.992       .  S
C1381      C1382   1.409       .  A
C1381      C1386   1.410       .  A
C1382      C1383   1.412       .  A
C1382      H1387   1.083       .  S
C1383      C1384   1.413       .  A
C1383      O1388   1.370       .  S
C1384      C1385   1.413       .  A
C1385      C1386   1.410       .  A
C1385      H1389   1.083       .  S
C1386      O1390   1.372       .  S
O1388      H1392   0.992       .  S
O1390      H1391   0.992       .  S
C1393      C1394   1.398       .  A
C1393      C1398   1.417       .  A
C1394      C1395   1.401       .  A
C1394      H1399   1.085       .  S
C1395      C1396   1.424       .  A
C1395      O1400   1.372       .  S
C1396      C1397   1.409       .  A
C1397      C1398   1.419       .  A
C1397      H1401   1.083       .  S
C1398      O1402   1.370       .  S
O1400      H1404   0.992       .  S
O1402      H1403   0.991       .  S
C1405      C1406   1.405       .  A
C1405      C1410   1.410       .  A
C1406      C1407   1.390       .  A
C1406      H1411   1.084       .  S
C1407      C1408   1.407       .  A
C1407      O1412   1.372       .  S
C1408      C1409   1.404       .  A
C1409      C1410   1.399       .  A
C1409      H1413   1.084       .  S
C1410      O1414   1.372       .  S
O1412      H1416   0.991       .  S
O1414      H1415   0.992       .  S
C1417      C1418   1.404       .  A
C1417      C1422   1.404       .  A
C1418      C1419   1.406       .  A
C1418      H1423   1.084       .  S
C1419      C1420   1.409       .  A
C1419      O1424   1.362       .  S
C1420      C1421   1.416       .  A
C1421      C1422   1.404       .  A
C1421      H1425   1.083       .  S
C1422      O1426   1.371       .  S
O1424      H1428   0.992       .  S
O1426      H1427   0.991       .  S
