geometry optimzed in LAMMPS
_audit_creation_date              2020-12-01 
_audit_creation_method            'lammps2cif' 
_symmetry_space_group_name_H-M    'P1' 
_symmetry_Int_Tables_number       1 
_symmetry_cell_setting            triclinic 
loop_ 
_symmetry_equiv_pos_as_xyz 
  x,y,z 
_cell_length_a                    62.94061502 
_cell_length_b                    63.006249761150386 
_cell_length_c                    54.43165989121857 
_cell_angle_alpha                 89.94100208928008 
_cell_angle_beta                  90.06775305629559 
_cell_angle_gamma                 90.05420997955156 
loop_ 
_atom_site_label 
_atom_site_type_symbol 
_atom_site_fract_x 
_atom_site_fract_y 
_atom_site_fract_z 
_atom_site_charge 
N1          N  0.96288063  0.87049990  0.13029953    -0.26800
N2          N  0.97448100  0.88798036  0.12993875    -0.34600
C3          C  0.97504918  0.89639200  0.15256519     0.01600
C4          C  0.96305523  0.88370060  0.16792550     0.07600
C5          C  0.95547879  0.86744157  0.15324399    -0.05500
H6          H  0.98306616  0.91103929  0.15725431     0.08300
H7          H  0.94538449  0.85438670  0.15879862     0.09500
Cu8        Cu  0.98741175  0.90073366  0.09842399     0.44200
Cu9        Cu  0.95846887  0.85195337  0.09923875     0.42000
Cu10       Cu  0.97652258  0.87529703  0.04074535     0.43900
N11         N  0.99547918  0.91368740  0.06491094    -0.34100
N12         N  0.99100348  0.90485561  0.04350688    -0.28400
C13         C  0.99745713  0.91796223  0.02541226    -0.04500
C14         C  0.00642548  0.93579237  0.03614377     0.07700
C15         C  0.00491822  0.93250798  0.06112393     0.01500
H16         H  0.99567202  0.91477243  0.00599452     0.09200
H17         H  0.00990215  0.94322514  0.07555636     0.08200
N18         N  0.96499067  0.84455932  0.04475610    -0.35600
N19         N  0.95903641  0.83601156  0.06589147    -0.27800
C20         C  0.95450879  0.81537502  0.06229476    -0.03000
C21         C  0.95754364  0.81078839  0.03775128     0.05600
C22         C  0.96411968  0.82962975  0.02714227     0.03700
H23         H  0.94973709  0.80443647  0.07660816     0.08800
H24         H  0.96881294  0.83211907  0.00824590     0.07600
N25         N  0.95910257  0.61862775  0.86980379    -0.26800
N26         N  0.96953073  0.60042251  0.86992789    -0.34600
C27         C  0.96904966  0.59199115  0.84731135     0.01600
C28         C  0.95759522  0.60535376  0.83221169     0.07600
C29         C  0.95145806  0.62213841  0.84700695    -0.05500
H30         H  0.97617867  0.57697233  0.84235076     0.08300
H31         H  0.94226154  0.63587821  0.84163373     0.09500
Cu32       Cu  0.98283344  0.58677894  0.90086732     0.44200
Cu33       Cu  0.95632032  0.63752414  0.90090829     0.42000
Cu34       Cu  0.97494765  0.61325259  0.95830218     0.43900
N35         N  0.99245276  0.57419687  0.93414315    -0.34100
N36         N  0.98932271  0.58377824  0.95541278    -0.28400
C37         C  0.99707035  0.57148876  0.97354775    -0.04500
C38         C  0.00541318  0.55329588  0.96309027     0.07700
C39         C  0.00220329  0.55553579  0.93811748     0.01500
H40         H  0.99660219  0.57551319  0.99285294     0.09200
H41         H  0.00653876  0.54438465  0.92386361     0.08200
N42         N  0.96322599  0.64389918  0.95550226    -0.35600
N43         N  0.95708700  0.65288716  0.93468480    -0.27800
C44         C  0.95248480  0.67338900  0.93900309    -0.03000
C45         C  0.95570508  0.67740943  0.96368042     0.05600
C46         C  0.96244287  0.65837430  0.97362049     0.03700
H47         H  0.94763847  0.68466116  0.92507133     0.08800
H48         H  0.96737894  0.65547062  0.99236586     0.07600
N49         N  0.66203597  0.57441508  0.37063043    -0.26800
N50         N  0.64380353  0.56403529  0.37128830    -0.34600
C51         C  0.63414065  0.56577215  0.34936787     0.01600
C52         C  0.64683742  0.57797315  0.33423589     0.07600
C53         C  0.66441898  0.58323486  0.34826619    -0.05500
H54         H  0.61889231  0.55883163  0.34487421     0.08300
H55         H  0.67800493  0.59255548  0.34262422     0.09500
Cu56       Cu  0.63246844  0.54907063  0.40238676     0.44200
Cu57       Cu  0.68245525  0.57563959  0.40045744     0.42000
Cu58       Cu  0.66120708  0.55631419  0.45924253     0.43900
N59         N  0.62169453  0.53854997  0.43606818    -0.34100
N60         N  0.63175097  0.54151532  0.45712671    -0.28400
C61         C  0.61983853  0.53345155  0.47546562    -0.04500
C62         C  0.60147577  0.52508509  0.46526106     0.07700
C63         C  0.60322828  0.52857805  0.44034195     0.01500
H64         H  0.62419460  0.53374797  0.49469474     0.09200
H65         H  0.59176448  0.52443556  0.42630268     0.08200
N66         N  0.69150018  0.56878624  0.45450126    -0.35600
N67         N  0.69939504  0.57491357  0.43310606    -0.27800
C68         C  0.71996451  0.58009116  0.43607988    -0.03000
C69         C  0.72517091  0.57730143  0.46052989     0.05600
C70         C  0.70678149  0.57024700  0.47170904     0.03700
H71         H  0.73038793  0.58521850  0.42143461     0.08800
H72         H  0.70489273  0.56559822  0.49071640     0.07600
N73         N  0.91862838  0.57354695  0.62942560    -0.26800
N74         N  0.93710850  0.56364439  0.62890374    -0.34600
C75         C  0.94587721  0.56415436  0.65138193     0.01600
C76         C  0.93233607  0.57505263  0.66684901     0.07600
C77         C  0.91521571  0.58086913  0.65234049    -0.05500
H78         H  0.96115507  0.55735511  0.65597129     0.08300
H79         H  0.90126216  0.58957587  0.65804085     0.09500
Cu80       Cu  0.94999246  0.55067819  0.59748179     0.44200
Cu81       Cu  0.89925447  0.57564714  0.59860926     0.42000
Cu82       Cu  0.92091063  0.55472934  0.54058560     0.43900
N83         N  0.96159515  0.54054235  0.56406532    -0.34100
N84         N  0.95120071  0.54215884  0.54303576    -0.28400
C85         C  0.96351044  0.53457902  0.52484701    -0.04500
C86         C  0.98250645  0.52794317  0.53510574     0.07700
C87         C  0.98072660  0.53191275  0.55991731     0.01500
H88         H  0.95895314  0.53397964  0.50569109     0.09200
H89         H  0.99254480  0.52892196  0.57395526     0.08200
N90         N  0.89059550  0.56694183  0.54466905    -0.35600
N91         N  0.88268249  0.57405724  0.56562289    -0.27800
C92         C  0.86223974  0.57943014  0.56209976    -0.03000
C93         C  0.85714552  0.57566484  0.53778397     0.05600
C94         C  0.87546418  0.56784310  0.52724102     0.03700
H95         H  0.85182746  0.58539774  0.57629689     0.08800
H96         H  0.87747206  0.56253118  0.50849416     0.07600
N97         N  0.61735430  0.61669028  0.13082683    -0.26800
N98         N  0.60872147  0.59757097  0.13038885    -0.34600
C99         C  0.60925449  0.58922964  0.15305151     0.01600
C100        C  0.61885333  0.60368229  0.16856533     0.07600
C101        C  0.62393132  0.62092364  0.15389959    -0.05500
H102        H  0.60321264  0.57367504  0.15779760     0.08300
H103        H  0.63137669  0.63558907  0.15964397     0.09500
Cu104      Cu  0.59675679  0.58325826  0.09920329     0.44200
Cu105      Cu  0.61825237  0.63590104  0.09983270     0.42000
Cu106      Cu  0.59940013  0.61118135  0.04208851     0.43900
N107        N  0.58620644  0.57056120  0.06643836    -0.34100
N108        N  0.58736706  0.58056224  0.04513804    -0.28400
C109        C  0.57931910  0.56790300  0.02748245    -0.04500
C110        C  0.57279330  0.54910809  0.03834012     0.07700
C111        C  0.57739986  0.55137255  0.06302860     0.01500
H112        H  0.57820578  0.57210347  0.00825004     0.09200
H113        H  0.57468275  0.53991479  0.07750318     0.08200
N114        N  0.60929415  0.64253373  0.04552057    -0.35600
N115        N  0.61538273  0.65152013  0.06636248    -0.27800
C116        C  0.61888848  0.67229224  0.06235519    -0.03000
C117        C  0.61504001  0.67651435  0.03783198     0.05600
C118        C  0.60909908  0.65732736  0.02767548     0.03700
H119        H  0.62373424  0.68349156  0.07634245     0.08800
H120        H  0.60426318  0.65446184  0.00889808     0.07600
N121        N  0.62211455  0.86988200  0.86658160    -0.26800
N122        N  0.61275541  0.88865111  0.86703473    -0.34600
C123        C  0.61424595  0.89764628  0.84476616     0.01600
C124        C  0.62519028  0.88402519  0.82953860     0.07600
C125        C  0.63004411  0.86652977  0.84391034    -0.05500
H126        H  0.60771666  0.91298970  0.83998681     0.08300
H127        H  0.63819291  0.85225653  0.83820929     0.09500
Cu128      Cu  0.59826563  0.90164717  0.89755277     0.44200
Cu129      Cu  0.62202555  0.84960252  0.89666497     0.42000
Cu130      Cu  0.59786650  0.87154433  0.95294554     0.43900
N131        N  0.58564331  0.91298387  0.93000528    -0.34100
N132        N  0.58544289  0.90197559  0.95066569    -0.28400
C133        C  0.57633719  0.91376985  0.96838632    -0.04500
C134        C  0.57067710  0.93314231  0.95830088     0.07700
C135        C  0.57681401  0.93207382  0.93394956     0.01500
H136        H  0.57419141  0.90870305  0.98721544     0.09200
H137        H  0.57511211  0.94426957  0.92008782     0.08200
N138        N  0.60923526  0.84079469  0.94933888    -0.35600
N139        N  0.61733153  0.83267114  0.92897328    -0.27800
C140        C  0.62133701  0.81192765  0.93264644    -0.03000
C141        C  0.61568308  0.80689257  0.95648778     0.05600
C142        C  0.60820165  0.82552949  0.96655668     0.03700
H143        H  0.62775478  0.80131788  0.91891773     0.08800
H144        H  0.60180272  0.82769575  0.98481475     0.07600
N145        N  0.91600220  0.91541895  0.36841118    -0.26800
N146        N  0.93409647  0.92606252  0.36883995    -0.34600
C147        C  0.94312570  0.92532749  0.34654783     0.01600
C148        C  0.93019840  0.91354155  0.33130556     0.07600
C149        C  0.91308656  0.90745730  0.34568878    -0.05500
H150        H  0.95823423  0.93250330  0.34193947     0.08300
H151        H  0.89962083  0.89791335  0.34015035     0.09500
Cu152      Cu  0.94659570  0.93998613  0.39983070     0.44200
Cu153      Cu  0.89660080  0.91262599  0.39913911     0.42000
Cu154      Cu  0.91816397  0.93486177  0.45656750     0.43900
N155        N  0.95827647  0.95064104  0.43291566    -0.34100
N156        N  0.94807706  0.94880837  0.45401306    -0.28400
C157        C  0.96030785  0.95699674  0.47199966    -0.04500
C158        C  0.97905202  0.96417942  0.46156895     0.07700
C159        C  0.97719451  0.95988658  0.43679168     0.01500
H160        H  0.95596407  0.95752130  0.49120910     0.09200
H161        H  0.98874947  0.96308882  0.42256376     0.08200
N162        N  0.88811877  0.92131403  0.45303771    -0.35600
N163        N  0.88019881  0.91372112  0.43227617    -0.27800
C164        C  0.85995357  0.90766814  0.43612004    -0.03000
C165        C  0.85496492  0.91142666  0.46044750     0.05600
C166        C  0.87318418  0.92002592  0.47064778     0.03700
H167        H  0.84953223  0.90129991  0.42211423     0.08800
H168        H  0.87521646  0.92568283  0.48925958     0.07600
N169        N  0.66158220  0.91603856  0.62636007    -0.26800
N170        N  0.64376836  0.92711841  0.62634867    -0.34600
C171        C  0.63529517  0.92675035  0.64897001     0.01600
C172        C  0.64830349  0.91467647  0.66393360     0.07600
C173        C  0.66480651  0.90806778  0.64903195    -0.05500
H174        H  0.62047783  0.93429398  0.65394830     0.08300
H175        H  0.67818108  0.89828069  0.65427138     0.09500
Cu176      Cu  0.63086514  0.94073851  0.59521825     0.44200
Cu177      Cu  0.68033355  0.91266341  0.59524129     0.42000
Cu178      Cu  0.65754930  0.93146954  0.53733934     0.43900
N179        N  0.61870580  0.94978258  0.56155622    -0.34100
N180        N  0.62810619  0.94622850  0.54024208    -0.28400
C181        C  0.61554751  0.95359684  0.52207176    -0.04500
C182        C  0.59744170  0.96211110  0.53262201     0.07700
C183        C  0.60000214  0.95940884  0.55759613     0.01500
H184        H  0.61928670  0.95270480  0.50270883     0.09200
H185        H  0.58896500  0.96391898  0.57189821     0.08200
N186        N  0.68774852  0.91835684  0.54066978    -0.35600
N187        N  0.69618798  0.91218311  0.56178042    -0.27800
C188        C  0.71651261  0.90648459  0.55797028    -0.03000
C189        C  0.72101526  0.90894191  0.53329116     0.05600
C190        C  0.70242072  0.91643079  0.52283342     0.03700
H191        H  0.72735736  0.90138678  0.57224100     0.08800
H192        H  0.70003356  0.92115289  0.50391890     0.07600
N193        N  0.15795530  0.07761314  0.63340489    -0.26800
N194        N  0.13979011  0.06708542  0.63329305    -0.34600
C195        C  0.13071918  0.06849240  0.65548918     0.01600
C196        C  0.14364898  0.08061112  0.67035875     0.07600
C197        C  0.16084826  0.08622178  0.65584366    -0.05500
H198        H  0.11565457  0.06135062  0.66035880     0.08300
H199        H  0.17448287  0.09560495  0.66120225     0.09500
Cu200      Cu  0.12726745  0.05199920  0.60302295     0.44200
Cu201      Cu  0.17757956  0.07870657  0.60275133     0.42000
Cu202      Cu  0.15531970  0.05529801  0.54607958     0.43900
N203        N  0.11526521  0.04033896  0.57052341    -0.34100
N204        N  0.12536806  0.04160993  0.54931322    -0.28400
C205        C  0.11302484  0.03307438  0.53167105    -0.04500
C206        C  0.09428703  0.02625318  0.54241339     0.07700
C207        C  0.09626667  0.03110261  0.56704903     0.01500
H208        H  0.11727747  0.03210247  0.51245712     0.09200
H209        H  0.08471280  0.02836270  0.58140824     0.08200
N210        N  0.18583541  0.06773462  0.54927767    -0.35600
N211        N  0.19401024  0.07544213  0.56985509    -0.27800
C212        C  0.21468604  0.07982246  0.56620103    -0.03000
C213        C  0.21968999  0.07486379  0.54217214     0.05600
C214        C  0.20103896  0.06740804  0.53190996     0.03700
H215        H  0.22536286  0.08580182  0.58017040     0.08800
H216        H  0.19893364  0.06117209  0.51355864     0.07600
N217        N  0.41037901  0.06904594  0.37094982    -0.26800
N218        N  0.42745958  0.05688593  0.37037712    -0.34600
C219        C  0.43587575  0.05743716  0.34775830     0.01600
C220        C  0.42365530  0.07072762  0.33338509     0.07600
C221        C  0.40756382  0.07787781  0.34861159    -0.05500
H222        H  0.45017655  0.04915137  0.34234568     0.08300
H223        H  0.39479485  0.08860532  0.34385774     0.09500
Cu224      Cu  0.43990241  0.04172138  0.40076400     0.44200
Cu225      Cu  0.39226535  0.07248079  0.40252201     0.42000
Cu226      Cu  0.41579870  0.05178046  0.45957229     0.43900
N227        N  0.45332947  0.03253074  0.43368957    -0.34100
N228        N  0.44488488  0.03657678  0.45540782    -0.28400
C229        C  0.45822675  0.02962682  0.47301070    -0.04500
C230        C  0.47588672  0.02090629  0.46168791     0.07700
C231        C  0.47221855  0.02299620  0.43681484     0.01500
H232        H  0.45540559  0.03112551  0.49253146     0.09200
H233        H  0.48270517  0.01833807  0.42203084     0.08200
N234        N  0.38546832  0.06468168  0.45698286    -0.35600
N235        N  0.37692780  0.07165179  0.43625632    -0.27800
C236        C  0.35651357  0.07675951  0.44034407    -0.03000
C237        C  0.35197816  0.07292163  0.46478945     0.05600
C238        C  0.37070400  0.06541312  0.47485163     0.03700
H239        H  0.34563141  0.08224909  0.42631943     0.08800
H240        H  0.37312621  0.05986977  0.49345671     0.07600
N241        N  0.45970234  0.11241117  0.13210887    -0.26800
N242        N  0.46735437  0.09291098  0.13106795    -0.34600
C243        C  0.46508772  0.08356173  0.15305156     0.01600
C244        C  0.45541371  0.09776553  0.16878072     0.07600
C245        C  0.45209651  0.11591404  0.15491002    -0.05500
H246        H  0.47016528  0.06755495  0.15721839     0.08300
H247        H  0.44513333  0.13067481  0.16105247     0.09500
Cu248      Cu  0.48083633  0.07959981  0.10015664     0.44200
Cu249      Cu  0.46119323  0.13297367  0.10224421     0.42000
Cu250      Cu  0.48362666  0.11044142  0.04509075     0.43900
N251        N  0.49420514  0.06843775  0.06806381    -0.34100
N252        N  0.49544108  0.07969342  0.04762307    -0.28400
C253        C  0.50490728  0.06785270  0.03019120    -0.04500
C254        C  0.50970921  0.04822004  0.04023473     0.07700
C255        C  0.50271800  0.04918114  0.06426503     0.01500
H256        H  0.50783578  0.07304677  0.01155092     0.09200
H257        H  0.50356802  0.03678118  0.07798907     0.08200
N258        N  0.47189514  0.14115192  0.04863546    -0.35600
N259        N  0.46470729  0.14947432  0.06935890    -0.27800
C260        C  0.46009120  0.17006002  0.06551685    -0.03000
C261        C  0.46426704  0.17480380  0.04119579     0.05600
C262        C  0.47160898  0.15613954  0.03100541     0.03700
H263        H  0.45417767  0.18077220  0.07944106     0.08800
H264        H  0.47710964  0.15381595  0.01238357     0.07600
N265        N  0.46328384  0.36655408  0.86885982    -0.26800
N266        N  0.47245551  0.38541230  0.86939498    -0.34600
C267        C  0.47127529  0.39430270  0.84707994     0.01600
C268        C  0.46069152  0.38049698  0.83173803     0.07600
C269        C  0.45576238  0.36299455  0.84604126    -0.05500
H270        H  0.47745697  0.40983784  0.84246851     0.08300
H271        H  0.44756346  0.34873619  0.84031302     0.09500
Cu272      Cu  0.48551885  0.39888520  0.90028308     0.44200
Cu273      Cu  0.46242676  0.34701651  0.89946503     0.42000
Cu274      Cu  0.48247744  0.37081527  0.95717109     0.43900
N275        N  0.49654198  0.41119640  0.93284208    -0.34100
N276        N  0.49520238  0.40124334  0.95415305    -0.28400
C277        C  0.50381976  0.41367451  0.97167325    -0.04500
C278        C  0.51091941  0.43221357  0.96066138     0.07700
C279        C  0.50601113  0.43007723  0.93606527     0.01500
H280        H  0.50501843  0.40945777  0.99089257     0.09200
H281        H  0.50903701  0.44137523  0.92150601     0.08200
N282        N  0.47218415  0.33953448  0.95336129    -0.35600
N283        N  0.46548506  0.33095685  0.93253852    -0.27800
C284        C  0.46159329  0.31020791  0.93622733    -0.03000
C285        C  0.46591079  0.30551734  0.96052514     0.05600
C286        C  0.47250436  0.32444126  0.97086962     0.03700
H287        H  0.45617995  0.29934923  0.92215782     0.08800
H288        H  0.47769632  0.32694779  0.98958950     0.07600
N289        N  0.16317701  0.41434447  0.37093893    -0.26800
N290        N  0.14495687  0.42473249  0.37110186    -0.34600
C291        C  0.13583008  0.42332521  0.34892035     0.01600
C292        C  0.14881741  0.41132485  0.33407784     0.07600
C293        C  0.16606492  0.40580662  0.34851760    -0.05500
H294        H  0.12071516  0.43036019  0.34406436     0.08300
H295        H  0.17975916  0.39657535  0.34311079     0.09500
Cu296      Cu  0.13243549  0.43932413  0.40148573     0.44200
Cu297      Cu  0.18295847  0.41313038  0.40137793     0.42000
Cu298      Cu  0.15983019  0.43280450  0.45881133     0.43900
N299        N  0.12040370  0.44946148  0.43445903    -0.34100
N300        N  0.13008031  0.44674489  0.45578091    -0.28400
C301        C  0.11785907  0.45497623  0.47365433    -0.04500
C302        C  0.09971318  0.46320726  0.46285072     0.07700
C303        C  0.10184263  0.45941032  0.43805961     0.01500
H304        H  0.12199594  0.45512735  0.49294668     0.09200
H305        H  0.09074886  0.46359070  0.42364054     0.08200
N306        N  0.19081755  0.42196614  0.45529620    -0.35600
N307        N  0.19932683  0.41554532  0.43436131    -0.27800
C308        C  0.22008577  0.41160198  0.43796567    -0.03000
C309        C  0.22480808  0.41555164  0.46234659     0.05600
C310        C  0.20590540  0.42198500  0.47283114     0.03700
H311        H  0.23095589  0.40648149  0.42378038     0.08800
H312        H  0.20346530  0.42710488  0.49157820     0.07600
N313        N  0.41813143  0.41775583  0.63180573    -0.26800
N314        N  0.43619697  0.42843295  0.63153046    -0.34600
C315        C  0.44522534  0.42743933  0.65381042     0.01600
C316        C  0.43229636  0.41538662  0.66881429     0.07600
C317        C  0.41526041  0.40941165  0.65433526    -0.05500
H318        H  0.46039485  0.43446972  0.65846576     0.08300
H319        H  0.40181066  0.39977863  0.65973214     0.09500
Cu320      Cu  0.44892147  0.44208335  0.60053904     0.44200
Cu321      Cu  0.39874512  0.41542529  0.60122730     0.42000
Cu322      Cu  0.42180863  0.43361416  0.54306644     0.43900
N323        N  0.46147804  0.45045429  0.56704608    -0.34100
N324        N  0.45196218  0.44707424  0.54574454    -0.28400
C325        C  0.46479806  0.45392314  0.52759428    -0.04500
C326        C  0.48318363  0.46190643  0.53818489     0.07700
C327        C  0.48051013  0.45943778  0.56314353     0.01500
H328        H  0.46098788  0.45319316  0.50823042     0.09200
H329        H  0.49161892  0.46377783  0.57748260     0.08200
N330        N  0.39082773  0.42245254  0.54702474    -0.35600
N331        N  0.38243638  0.41647009  0.56821696    -0.27800
C332        C  0.36173520  0.41205314  0.56488159    -0.03000
C333        C  0.35687726  0.41524895  0.54040227     0.05600
C334        C  0.37567024  0.42171943  0.52957814     0.03700
H335        H  0.35097534  0.40724254  0.57934211     0.08800
H336        H  0.37795678  0.42639486  0.51064108     0.07600
N337        N  0.11460194  0.37186988  0.13266717    -0.26800
N338        N  0.10416566  0.39005655  0.13246423    -0.34600
C339        C  0.10572867  0.39915117  0.15462575     0.01600
C340        C  0.11779746  0.38611398  0.16949586     0.07600
C341        C  0.12328560  0.36896966  0.15503391    -0.05500
H342        H  0.09866596  0.41423124  0.15943220     0.08300
H343        H  0.13255236  0.35527909  0.16043116     0.09500
Cu344      Cu  0.08893615  0.40256163  0.10220368     0.44200
Cu345      Cu  0.11594197  0.35207245  0.10251305     0.42000
Cu346      Cu  0.09609100  0.37519677  0.04524461     0.43900
N347        N  0.07844747  0.41442964  0.06904175    -0.34100
N348        N  0.08142300  0.40462926  0.04787766    -0.28400
C349        C  0.07379941  0.41689794  0.02964395    -0.04500
C350        C  0.06571863  0.43528416  0.03994860     0.07700
C351        C  0.06889854  0.43316436  0.06492843     0.01500
H352        H  0.07437932  0.41283491  0.01035401     0.09200
H353        H  0.06495054  0.44456843  0.07905695     0.08200
N354        N  0.10904596  0.34498127  0.04827421    -0.35600
N355        N  0.11543143  0.33639891  0.06921169    -0.27800
C356        C  0.12139671  0.31624075  0.06513612    -0.03000
C357        C  0.11893857  0.31202771  0.04043505     0.05600
C358        C  0.11110504  0.33055547  0.03023760     0.03700
H359        H  0.12697792  0.30542132  0.07918122     0.08800
H360        H  0.10651179  0.33314760  0.01131593     0.07600
N361        N  0.10896123  0.12164519  0.87160546    -0.26800
N362        N  0.09735973  0.10415561  0.87176642    -0.34600
C363        C  0.09769273  0.09538857  0.84930128     0.01600
C364        C  0.11020311  0.10790860  0.83426457     0.07600
C365        C  0.11715594  0.12440623  0.84897790    -0.05500
H366        H  0.08972622  0.08075119  0.84446264     0.08300
H367        H  0.12736630  0.13744216  0.84365407     0.09500
Cu368      Cu  0.08259267  0.09224708  0.90274668     0.44200
Cu369      Cu  0.11286003  0.14049944  0.90249702     0.42000
Cu370      Cu  0.09295248  0.11810009  0.96039118     0.43900
N371        N  0.07196657  0.08081529  0.93613285    -0.34100
N372        N  0.07624827  0.08980671  0.95750219    -0.28400
C373        C  0.06857612  0.07743298  0.97563835    -0.04500
C374        C  0.05902103  0.05988339  0.96500240     0.07700
C375        C  0.06138389  0.06261608  0.94000618     0.01500
H376        H  0.07027098  0.08074234  0.99503969     0.09200
H377        H  0.05655516  0.05172655  0.92567948     0.08200
N378        N  0.10759180  0.14749318  0.95715045    -0.35600
N379        N  0.11413535  0.15586382  0.93616485    -0.27800
C380        C  0.12095944  0.17577667  0.94031585    -0.03000
C381        C  0.11881475  0.18002584  0.96507274     0.05600
C382        C  0.11034430  0.16176802  0.97521938     0.03700
H383        H  0.12662958  0.18651497  0.92624015     0.08800
H384        H  0.10558318  0.15934939  0.99410420     0.07600
C385        C  0.12552704  0.23308168  0.98235876     0.30300
C386        C  0.12588405  0.25511829  0.97873837    -0.36000
C387        C  0.12531018  0.26754043  0.00006834     0.16300
C388        C  0.12489108  0.25888412  0.02337917     0.22100
C389        C  0.12470314  0.23685472  0.02700667    -0.34200
C390        C  0.12482433  0.22444019  0.00566686     0.16200
O391        O  0.12424457  0.21856083  0.96501209    -0.26200
C392        C  0.12251584  0.20042326  0.97737505     0.06000
C393        C  0.12284665  0.20309689  0.00272405    -0.31100
O394        O  0.12323026  0.27341468  0.04064772    -0.22900
C395        C  0.12235420  0.29157702  0.02822653    -0.02900
C396        C  0.12362795  0.28892360  0.00292370    -0.17300
H397        H  0.12571920  0.26208369  0.96055367     0.20700
H398        H  0.12364747  0.22990055  0.04515924     0.19100
H399        H  0.12112322  0.19114653  0.01688523     0.19000
H400        H  0.12280585  0.30093116  0.98872103     0.14900
C401        C  0.13699706  0.38705068  0.22992294     0.30300
C402        C  0.14984488  0.38139935  0.25001653    -0.36000
C403        C  0.14605581  0.39256929  0.27189182     0.16300
C404        C  0.13054595  0.40796738  0.27380508     0.22100
C405        C  0.11785341  0.41365099  0.25380380    -0.34200
C406        C  0.12180345  0.40272961  0.23199834     0.16200
O407        O  0.13769521  0.37887450  0.20761894    -0.26200
C408        C  0.12287706  0.38968729  0.19542689     0.06000
C409        C  0.11255363  0.40471659  0.20967445    -0.31100
O410        O  0.12953433  0.41634631  0.29583359    -0.22900
C411        C  0.14469753  0.40638705  0.30825746    -0.02900
C412        C  0.15558814  0.39140490  0.29436698    -0.17300
H413        H  0.16195277  0.36929404  0.24866427     0.20700
H414        H  0.10581652  0.42583091  0.25512256     0.19100
H415        H  0.09992396  0.41543978  0.20442438     0.19000
H416        H  0.16847972  0.38115339  0.30002503     0.14900
C417        C  0.31273113  0.41332446  0.50121574     0.30300
C418        C  0.30199420  0.41351931  0.47863688    -0.36000
C419        C  0.27975761  0.41346536  0.47989136     0.16300
C420        C  0.26879367  0.41347346  0.50184259     0.22100
C421        C  0.27953607  0.41299882  0.52444630    -0.34200
C422        C  0.30179867  0.41281702  0.52318402     0.16200
O423        O  0.33349114  0.41402060  0.50432620    -0.26200
C424        C  0.33591581  0.41372680  0.52859571     0.06000
C425        C  0.31674709  0.41286305  0.54128144    -0.31100
O426        O  0.24802744  0.41419023  0.49865761    -0.22900
C427        C  0.24569691  0.41437895  0.47435500    -0.02900
C428        C  0.26488964  0.41388643  0.46175098    -0.17300
H429        H  0.31039500  0.41391366  0.46129946     0.20700
H430        H  0.27113545  0.41298991  0.54179064     0.19100
H431        H  0.31418920  0.41292102  0.56094102     0.19000
H432        H  0.26750927  0.41424724  0.44210662     0.14900
C433        C  0.43532952  0.39401872  0.72813865     0.30300
C434        C  0.43087046  0.37993725  0.74750365    -0.36000
C435        C  0.44222993  0.38340540  0.76936145     0.16300
C436        C  0.45672723  0.39972079  0.77191272     0.22100
C437        C  0.46128596  0.41360524  0.75259955    -0.34200
C438        C  0.45014295  0.41002251  0.73081084     0.16200
O439        O  0.42672056  0.39383781  0.70601950    -0.26200
C440        C  0.43637212  0.40981440  0.69451889     0.06000
C441        C  0.45107995  0.42039787  0.70904518    -0.31100
O442        O  0.46510252  0.40055838  0.79397679    -0.22900
C443        C  0.45605865  0.38448932  0.80579106    -0.02900
C444        C  0.44172487  0.37311283  0.79142730    -0.17300
H445        H  0.41939764  0.36725154  0.74567345     0.20700
H446        H  0.47269730  0.42634468  0.75446179     0.19100
H447        H  0.46099255  0.43381838  0.70428129     0.19000
H448        H  0.43204931  0.35964501  0.79664373     0.14900
C449        C  0.46442927  0.26205425  0.00069223     0.30300
C450        C  0.46527596  0.25165967  0.02346467    -0.36000
C451        C  0.46338028  0.22950058  0.02278721     0.16300
C452        C  0.46113427  0.21828718  0.00116122     0.22100
C453        C  0.45995480  0.22871272  0.97839924    -0.34200
C454        C  0.46161551  0.25090959  0.97910826     0.16200
O455        O  0.46631627  0.28265025  0.99702863    -0.26200
C456        C  0.46448571  0.28477137  0.97280767     0.06000
C457        C  0.46147604  0.26555637  0.96069373    -0.31100
O458        O  0.46089179  0.19758051  0.00473286    -0.22900
C459        C  0.46268090  0.19555116  0.02898398    -0.02900
C460        C  0.46413262  0.21487465  0.04117968    -0.17300
H461        H  0.46750575  0.26023335  0.04049534     0.20700
H462        H  0.45817040  0.22010912  0.96132250     0.19100
H463        H  0.45979026  0.26275816  0.94117793     0.19000
H464        H  0.46628607  0.21767634  0.06063965     0.14900
C465        C  0.43703354  0.09705372  0.22976437     0.30300
C466        C  0.42496467  0.10329156  0.25027341    -0.36000
C467        C  0.42754713  0.09093111  0.27160817     0.16300
C468        C  0.44124870  0.07385584  0.27265160     0.22100
C469        C  0.45314532  0.06758670  0.25223230    -0.34200
C470        C  0.45038145  0.07972109  0.23095838     0.16200
O471        O  0.43708491  0.10605817  0.20780409    -0.26200
C472        C  0.45049488  0.09412217  0.19487730     0.06000
C473        C  0.45918735  0.07754795  0.20839094    -0.31100
O474        O  0.44154413  0.06467496  0.29434441    -0.22900
C475        C  0.42771646  0.07580752  0.30747030    -0.02900
C476        C  0.41841276  0.09235166  0.29431002    -0.17300
H477        H  0.41428349  0.11671370  0.24961406     0.20700
H478        H  0.46376216  0.05411277  0.25286613     0.19100
H479        H  0.47041545  0.06561935  0.20247054     0.19000
H480        H  0.40689171  0.10384600  0.30062730     0.14900
C481        C  0.12426386  0.08482010  0.73022212     0.30300
C482        C  0.11080040  0.07979490  0.74982149    -0.36000
C483        C  0.11450465  0.09081952  0.77168664     0.16300
C484        C  0.13022973  0.10594887  0.77414292     0.22100
C485        C  0.14382195  0.11093821  0.75446882    -0.34200
C486        C  0.14024381  0.09970586  0.73255406     0.16200
O487        O  0.12351698  0.07632627  0.70820334    -0.26200
C488        C  0.13929788  0.08570864  0.69617383     0.06000
C489        C  0.15035739  0.10041386  0.71037166    -0.31100
O490        O  0.13075128  0.11424314  0.79640940    -0.22900
C491        C  0.11525927  0.10411587  0.80827800    -0.02900
C492        C  0.10465048  0.08937722  0.79378517    -0.17300
H493        H  0.09836988  0.06802510  0.74816205     0.20700
H494        H  0.15632798  0.12262351  0.75616546     0.19100
H495        H  0.16368459  0.11025527  0.70507481     0.19000
H496        H  0.09158426  0.07908609  0.79879001     0.14900
C497        C  0.30793291  0.07415369  0.50422040     0.30300
C498        C  0.29707226  0.07335832  0.52671100    -0.36000
C499        C  0.27484919  0.07472585  0.52533528     0.16300
C500        C  0.26402839  0.07636542  0.50333457     0.22100
C501        C  0.27489239  0.07739594  0.48089298    -0.34200
C502        C  0.29710589  0.07636904  0.48229870     0.16200
O503        O  0.32867913  0.07279240  0.50109827    -0.26200
C504        C  0.33114239  0.07440377  0.47688213     0.06000
C505        C  0.31204599  0.07673985  0.46429121    -0.31100
O506        O  0.24323743  0.07667402  0.50627496    -0.22900
C507        C  0.24071919  0.07556495  0.53049924    -0.02900
C508        C  0.25982469  0.07440230  0.54330199    -0.17300
H509        H  0.30535406  0.07170525  0.54405006     0.20700
H510        H  0.26659946  0.07879861  0.46353100     0.19100
H511        H  0.30949464  0.07801348  0.44467920     0.19000
H512        H  0.26224112  0.07299046  0.56292720     0.14900
C513        C  0.54919948  0.98597478  0.51671763     0.30300
C514        C  0.52923289  0.99498569  0.52120609    -0.36000
C515        C  0.51761726  0.00105058  0.50041111     0.16300
C516        C  0.52513010  0.99845751  0.47679470     0.22100
C517        C  0.54518002  0.98950515  0.47229213    -0.34200
C518        C  0.55680902  0.98339298  0.49313582     0.16200
O519        O  0.56250771  0.97893925  0.53349913    -0.26200
C520        C  0.57889800  0.97173866  0.52058507     0.06000
C521        C  0.57628703  0.97410045  0.49533518    -0.31100
O522        O  0.51146754  0.00506379  0.46009053    -0.22900
C523        C  0.49502959  0.01197586  0.47320480    -0.02900
C524        C  0.49797856  0.00989194  0.49839921    -0.17300
H525        H  0.52312796  0.99699567  0.53963419     0.20700
H526        H  0.55121337  0.98733767  0.45385600     0.19100
H527        H  0.58704705  0.96951323  0.48078842     0.19000
H528        H  0.48721577  0.01417127  0.51306682     0.14900
C529        C  0.05685798  0.00369942  0.50249922     0.30300
C530        C  0.04881573  0.99648182  0.47998378    -0.36000
C531        C  0.02821393  0.98803970  0.48055227     0.16300
C532        C  0.01630222  0.98674275  0.50178080     0.22100
C533        C  0.02434303  0.99398344  0.52431215    -0.34200
C534        C  0.04496347  0.00243261  0.52374549     0.16200
O535        O  0.07574467  0.01218562  0.50619553    -0.26200
C536        C  0.07596453  0.01639217  0.53012885     0.06000
C537        C  0.05723315  0.01066228  0.54198803    -0.31100
O538        O  0.99743177  0.97819923  0.49802807    -0.22900
C539        C  0.99727932  0.97401575  0.47407665    -0.02900
C540        C  0.01601244  0.97981100  0.46228707    -0.17300
H541        H  0.05797863  0.99738036  0.46320049     0.20700
H542        H  0.01518285  0.99307797  0.54109599     0.19100
H543        H  0.05321020  0.01234971  0.56120911     0.19000
H544        H  0.02009720  0.97815651  0.44307972     0.14900
C545        C  0.77481240  0.90568519  0.51719639     0.30300
C546        C  0.79679991  0.90687219  0.52123795    -0.36000
C547        C  0.80959625  0.90675333  0.50016803     0.16300
C548        C  0.80137983  0.90517447  0.47671772     0.22100
C549        C  0.77936966  0.90395750  0.47266950    -0.34200
C550        C  0.76654009  0.90447443  0.49373884     0.16200
O551        O  0.75993117  0.90676352  0.53417875    -0.26200
C552        C  0.74187490  0.90647328  0.52145074     0.06000
C553        C  0.74499938  0.90504124  0.49620107    -0.31100
O554        O  0.81624212  0.90607689  0.45966145    -0.22900
C555        C  0.83417688  0.90846783  0.47235986    -0.02900
C556        C  0.83099661  0.90898538  0.49763469    -0.17300
H557        H  0.80343348  0.90842293  0.53950318     0.20700
H558        H  0.77269601  0.90329511  0.45435233     0.19100
H559        H  0.73315056  0.90494065  0.48177509     0.19000
H560        H  0.84269916  0.91110904  0.51201162     0.14900
C561        C  0.53317170  0.01138459  0.00033379     0.30300
C562        C  0.54171374  0.00396899  0.97816845    -0.36000
C563        C  0.54839811  0.98274762  0.97806013     0.16300
C564        C  0.54685484  0.96967555  0.99834624     0.22100
C565        C  0.53825815  0.97707824  0.02051672    -0.34200
C566        C  0.53156954  0.99832114  0.02062409     0.16200
O567        O  0.52585715  0.03066021  0.00450658    -0.26200
C568        C  0.51949802  0.02995022  0.02779179     0.06000
C569        C  0.52269201  0.01022808  0.03874304    -0.31100
O570        O  0.55436234  0.95046165  0.99416497    -0.22900
C571        C  0.56073571  0.95125856  0.97087214    -0.02900
C572        C  0.55736781  0.97094245  0.95994627    -0.17300
H573        H  0.54307874  0.01404692  0.96213201     0.20700
H574        H  0.53693457  0.96701263  0.03656779     0.19100
H575        H  0.51888959  0.00531629  0.05727984     0.19000
H576        H  0.56118508  0.97592463  0.94143829     0.14900
C577        C  0.62774979  0.90214998  0.76897809     0.30300
C578        C  0.62249566  0.91547312  0.74932401    -0.36000
C579        C  0.63263491  0.91112625  0.72706450     0.16300
C580        C  0.64716230  0.89492042  0.72426516     0.22100
C581        C  0.65231159  0.88139886  0.74397683    -0.34200
C582        C  0.64196032  0.88563819  0.76631392     0.16200
O583        O  0.62017495  0.90360369  0.79139446    -0.26200
C584        C  0.62945230  0.88774285  0.80337031     0.06000
C585        C  0.64316179  0.87590446  0.78872104    -0.31100
O586        O  0.65486748  0.89402388  0.70172449    -0.22900
C587        C  0.64493451  0.90974671  0.69004295    -0.02900
C588        C  0.63090850  0.92085974  0.70490948    -0.17300
H589        H  0.61127318  0.92834329  0.75126783     0.20700
H590        H  0.66354637  0.86853851  0.74204047     0.19100
H591        H  0.65273734  0.86236099  0.79388576     0.19000
H592        H  0.62098905  0.93425972  0.70013641     0.14900
C593        C  0.55205825  0.51019229  0.99891635     0.30300
C594        C  0.54637580  0.50096413  0.97639691    -0.36000
C595        C  0.53688616  0.48083743  0.97774379     0.16300
C596        C  0.53327994  0.47044923  0.99969272     0.22100
C597        C  0.53903167  0.47963939  0.02218446    -0.34200
C598        C  0.54847362  0.49976986  0.02084506     0.16200
O599        O  0.56097726  0.52896571  0.00204615    -0.26200
C600        C  0.56316997  0.53052993  0.02629912     0.06000
C601        C  0.55564763  0.51283307  0.03889731    -0.31100
O602        O  0.52388347  0.45190954  0.99667228    -0.22900
C603        C  0.52138932  0.45042810  0.97246980    -0.02900
C604        C  0.52923570  0.46794540  0.95976741    -0.17300
H605        H  0.54903047  0.50896761  0.95906106     0.20700
H606        H  0.53621346  0.47171253  0.03953091     0.19100
H607        H  0.55544795  0.50999766  0.05850651     0.19000
H608        H  0.52914093  0.47086798  0.94017198     0.14900
C609        C  0.61697752  0.71966759  0.99723841     0.30300
C610        C  0.61785255  0.72993497  0.97436352    -0.36000
C611        C  0.61750465  0.75218817  0.97500385     0.16300
C612        C  0.61607305  0.76351449  0.99663871     0.22100
C613        C  0.61544912  0.75326752  0.01949051    -0.34200
C614        C  0.61610052  0.73105616  0.01886658     0.16200
O615        O  0.61674823  0.69898835  0.00098277    -0.26200
C616        C  0.61598954  0.69715741  0.02532267     0.06000
C617        C  0.61564040  0.71658085  0.03740439    -0.31100
O618        O  0.61529587  0.78415717  0.99296155    -0.22900
C619        C  0.61652228  0.78612448  0.96868603    -0.02900
C620        C  0.61800462  0.76677537  0.95652129    -0.17300
H621        H  0.61865032  0.72119317  0.95728307     0.20700
H622        H  0.61443004  0.76200585  0.03655802     0.19100
H623        H  0.61471596  0.71958160  0.05694704     0.19000
H624        H  0.61885750  0.76388839  0.93695067     0.14900
C625        C  0.05293870  0.48973117  0.47854489     0.30300
C626        C  0.03321881  0.49941341  0.47429194    -0.36000
C627        C  0.02240811  0.50647352  0.49522311     0.16300
C628        C  0.03054440  0.50426692  0.51865346     0.22100
C629        C  0.05029105  0.49469500  0.52288409    -0.34200
C630        C  0.06103129  0.48753151  0.50199305     0.16200
O631        O  0.06550617  0.48153519  0.46175148    -0.26200
C632        C  0.08182295  0.47400625  0.47462303     0.06000
C633        C  0.07993874  0.47729438  0.49975656    -0.31100
O634        O  0.01764113  0.51163373  0.53559007    -0.22900
C635        C  0.00099340  0.51859548  0.52289821    -0.02900
C636        C  0.00304265  0.51584813  0.49766838    -0.17300
H637        H  0.02666283  0.50107537  0.45600162     0.20700
H638        H  0.05670092  0.49274272  0.54120410     0.19100
H639        H  0.09078261  0.47266223  0.51423991     0.19000
H640        H  0.99187571  0.51998398  0.48331031     0.14900
C641        C  0.53133123  0.48594198  0.52201622     0.30300
C642        C  0.55110728  0.49560019  0.52622302    -0.36000
C643        C  0.56211477  0.50234706  0.50524217     0.16300
C644        C  0.55415930  0.49974706  0.48179310     0.22100
C645        C  0.53442441  0.49006618  0.47759353    -0.34200
C646        C  0.52343062  0.48332815  0.49854708     0.16200
O647        O  0.51827737  0.47866346  0.53893328    -0.26200
C648        C  0.50181726  0.47130473  0.52614312     0.06000
C649        C  0.50413949  0.47374718  0.50090837    -0.31100
O650        O  0.56697066  0.50734290  0.46484849    -0.22900
C651        C  0.58338189  0.51489066  0.47753533    -0.02900
C652        C  0.58127482  0.51223810  0.50279161    -0.17300
H653        H  0.55741074  0.49777508  0.54455736     0.20700
H654        H  0.52805640  0.48801885  0.45926859     0.19100
H655        H  0.49318716  0.46927154  0.48646820     0.19000
H656        H  0.59216572  0.51697921  0.51717986     0.14900
C657        C  0.63564141  0.60361076  0.23011185     0.30300
C658        C  0.64841280  0.60883381  0.25043755    -0.36000
C659        C  0.64411360  0.59767083  0.27224577     0.16300
C660        C  0.62819056  0.58265786  0.27395296     0.22100
C661        C  0.61553371  0.57740521  0.25369933    -0.34200
C662        C  0.62000233  0.58831976  0.23191635     0.16200
O663        O  0.63715594  0.61154063  0.20769008    -0.26200
C664        C  0.62242468  0.60095712  0.19507258     0.06000
C665        C  0.61130613  0.58634991  0.20923196    -0.31100
O666        O  0.62696333  0.57402296  0.29592687    -0.22900
C667        C  0.64240500  0.58345485  0.30850847    -0.02900
C668        C  0.65365643  0.59832445  0.29474512    -0.17300
H669        H  0.66097021  0.62050704  0.24924722     0.20700
H670        H  0.60326596  0.56541871  0.25475887     0.19100
H671        H  0.59874905  0.57568238  0.20357208     0.19000
H672        H  0.66691511  0.60808966  0.30044964     0.14900
C673        C  0.76941326  0.58109160  0.49923025     0.30300
C674        C  0.78023017  0.58173605  0.52173800    -0.36000
C675        C  0.80243404  0.58084516  0.52039234     0.16300
C676        C  0.81326514  0.57921222  0.49843349     0.22100
C677        C  0.80246056  0.57894722  0.47588529    -0.34200
C678        C  0.78024754  0.58005460  0.47722039     0.16200
O679        O  0.74864452  0.58060210  0.49627041    -0.26200
C680        C  0.74614149  0.57952374  0.47204780     0.06000
C681        C  0.76524060  0.57928087  0.45922871    -0.31100
O682        O  0.83394674  0.57738610  0.50158497    -0.22900
C683        C  0.83637571  0.57811279  0.52584958    -0.02900
C684        C  0.81733440  0.58036200  0.53848578    -0.17300
H685        H  0.77189902  0.58242846  0.53910824     0.20700
H686        H  0.81076213  0.57754096  0.45855667     0.19100
H687        H  0.76769454  0.57782372  0.43962508     0.19000
H688        H  0.81478692  0.58083578  0.55814012     0.14900
C689        C  0.04287435  0.48354508  0.02197637     0.30300
C690        C  0.03415022  0.50380787  0.02534263    -0.36000
C691        C  0.02758981  0.51434405  0.00395435     0.16300
C692        C  0.02952051  0.50557551  0.98083343     0.22100
C693        C  0.03830506  0.48533417  0.97745983    -0.34200
C694        C  0.04482326  0.47477580  0.99885768     0.16200
O695        O  0.04988912  0.47083279  0.03942003    -0.26200
C696        C  0.05641657  0.45369959  0.02732812     0.06000
C697        C  0.05366215  0.45525335  0.00203476    -0.31100
O698        O  0.02211671  0.51812663  0.96344105    -0.22900
C699        C  0.01534266  0.53514067  0.97558051    -0.02900
C700        C  0.01836926  0.53368928  0.00083972    -0.17300
H701        H  0.03248765  0.51081976  0.04339405     0.20700
H702        H  0.03983721  0.47826467  0.95942521     0.19100
H703        H  0.05758091  0.44370609  0.98804946     0.19000
H704        H  0.01424180  0.54512793  0.01486773     0.14900
C705        C  0.95494702  0.58776702  0.77141182     0.30300
C706        C  0.96068278  0.57517493  0.75132307    -0.36000
C707        C  0.94931195  0.57872279  0.72961422     0.16300
C708        C  0.93320691  0.59348374  0.72773858     0.22100
C709        C  0.92752705  0.60623013  0.74788800    -0.34200
C710        C  0.93911162  0.60283638  0.76963798     0.16200
O711        O  0.96345423  0.58686305  0.79346448    -0.26200
C712        C  0.95313641  0.60166457  0.80606143     0.06000
C713        C  0.93782528  0.61222905  0.79219464    -0.31100
O714        O  0.92475859  0.59404288  0.70551045    -0.22900
C715        C  0.93578478  0.57957174  0.69306842    -0.02900
C716        C  0.95123936  0.56957156  0.70716998    -0.17300
H717        H  0.97318759  0.56346270  0.75252620     0.20700
H718        H  0.91506008  0.61798136  0.74666880     0.19100
H719        H  0.92710745  0.62466181  0.79800003     0.19000
H720        H  0.96232911  0.55736317  0.70167884     0.14900
C721        C  0.02928646  0.98457926  0.02040556     0.30300
C722        C  0.03934191  0.00409715  0.02480428    -0.36000
C723        C  0.04220681  0.01718863  0.00423810     0.16300
C724        C  0.03572801  0.01138438  0.98095751     0.22100
C725        C  0.02570307  0.99186249  0.97655940    -0.34200
C726        C  0.02280875  0.97878978  0.99712086     0.16200
O727        O  0.02461387  0.97012092  0.03702565    -0.26200
C728        C  0.01508619  0.95484429  0.02423291     0.06000
C729        C  0.01357331  0.95931481  0.99927349    -0.31100
O730        O  0.04042333  0.02580086  0.96430647    -0.22900
C731        C  0.04995354  0.04109048  0.97705724    -0.02900
C732        C  0.05145459  0.03666178  0.00204012    -0.17300
H733        H  0.04451639  0.00875521  0.04298371     0.20700
H734        H  0.02056180  0.98718916  0.95837395     0.19100
H735        H  0.00635172  0.94983555  0.98494510     0.17400
H736        H  0.05877368  0.04611212  0.01632926     0.14900
C737        C  0.95027536  0.90794951  0.27181689     0.30300
C738        C  0.96439508  0.91172977  0.25243360    -0.36000
C739        C  0.96017060  0.90078208  0.23060689     0.16300
C740        C  0.94335039  0.88688609  0.22801913     0.22100
C741        C  0.92915471  0.88314944  0.24744114    -0.34200
C742        C  0.93326904  0.89427465  0.26926677     0.16200
O743        O  0.95128498  0.91652789  0.29381261    -0.26200
C744        C  0.93466290  0.90835298  0.30553951     0.06000
C745        C  0.92280317  0.89443371  0.29118198    -0.31100
O746        O  0.94231712  0.87859744  0.20579038    -0.22900
C747        C  0.95858687  0.88748264  0.19403072    -0.02900
C748        C  0.97024485  0.90138509  0.20857711    -0.17300
H749        H  0.97764686  0.92255719  0.25419598     0.20700
H750        H  0.91578572  0.87247706  0.24560739     0.19100
H751        H  0.90873028  0.88558320  0.29622635     0.19000
H752        H  0.98399846  0.91074017  0.20357068     0.14900
C753        C  0.95437909  0.75707064  0.02146618     0.30300
C754        C  0.95446849  0.73504045  0.02534545    -0.36000
C755        C  0.95400913  0.72242039  0.00412781     0.16300
C756        C  0.95322206  0.73089563  0.98074303     0.22100
C757        C  0.95320236  0.75289067  0.97687561    -0.34200
C758        C  0.95395295  0.76549085  0.99804639     0.16200
O759        O  0.95532618  0.77184929  0.03857878    -0.26200
C760        C  0.95570672  0.78992353  0.02590420     0.06000
C761        C  0.95491691  0.78693258  0.00062551    -0.31100
O762        O  0.95326972  0.71621749  0.96352519    -0.22900
C763        C  0.95427507  0.69809320  0.97600209    -0.02900
C764        C  0.95478549  0.70095599  0.00134321    -0.17300
H765        H  0.95520562  0.72822842  0.04359119     0.20700
H766        H  0.95299030  0.75970170  0.95861211     0.19100
H767        H  0.95516867  0.79881759  0.98625601     0.19000
H768        H  0.95584190  0.68899887  0.01558386     0.14900
loop_ 
_geom_bond_atom_site_label_1 
_geom_bond_atom_site_label_2 
_geom_bond_distance 
_geom_bond_site_symmetry_2 
_ccdc_geom_bond_type 
N1            N2   1.321       .  A
N1            C5   1.347       .  A
N1           Cu9   2.074       .  S
N2            C3   1.342       .  A
N2           Cu8   2.062       .  S
C3            C4   1.381       .  A
C3            H6   1.082       .  S
C4            C5   1.384       .  A
C4          C747   1.469       .  S
C5            H7   1.082       .  S
Cu8          N11   2.062       .  S
Cu9          N19   2.076       .  S
Cu10         N12   2.078       .  S
Cu10         N18   2.079       .  S
N11          N12   1.322       .  A
N11          C15   1.342   1_655  A
N12          C13   1.347       .  A
C13          C14   1.386   1_655  A
C13          H16   1.082       .  S
C14          C15   1.379       .  A
C14         C728   1.468       .  S
C15          H17   1.082       .  S
N18          N19   1.324       .  A
N18          C22   1.345       .  A
N19          C20   1.345       .  A
C20          C21   1.381       .  A
C20          H23   1.082       .  S
C21          C22   1.383       .  A
C21         C760   1.469       .  S
C22          H24   1.082       .  S
N25          N26   1.322       .  A
N25          C29   1.348       .  A
N25         Cu33   2.078       .  S
N26          C27   1.342       .  A
N26         Cu32   2.067       .  S
C27          C28   1.379       .  A
C27          H30   1.082       .  S
C28          C29   1.385       .  A
C28         C712   1.469       .  S
C29          H31   1.082       .  S
Cu32         N35   2.067       .  S
Cu33         N43   2.079       .  S
Cu34         N36   2.073       .  S
Cu34         N42   2.073       .  S
N35          N36   1.321       .  A
N35          C39   1.344   1_655  A
N36          C37   1.345       .  A
C37          C38   1.385   1_655  A
C37          H40   1.082       .  S
C38          C39   1.381       .  A
C38         C699   1.470       .  S
C39          H41   1.083       .  S
N42          N43   1.324       .  A
N42          C46   1.345       .  A
N43          C44   1.345       .  A
C44          C45   1.382       .  A
C44          H47   1.082       .  S
C45          C46   1.382       .  A
C45         C763   1.469       .  S
C46          H48   1.082       .  S
N49          N50   1.321       .  A
N49          C53   1.346       .  A
N49         Cu57   2.071       .  S
N50          C51   1.343       .  A
N50         Cu56   2.064       .  S
C51          C52   1.381       .  A
C51          H54   1.082       .  S
C52          C53   1.384       .  A
C52         C667   1.468       .  S
C53          H55   1.082       .  S
Cu56         N59   2.064       .  S
Cu57         N67   2.072       .  S
Cu58         N60   2.078       .  S
Cu58         N66   2.078       .  S
N59          N60   1.322       .  A
N59          C63   1.341       .  A
N60          C61   1.348       .  A
C61          C62   1.386       .  A
C61          H64   1.082       .  S
C62          C63   1.378       .  A
C62         C651   1.468       .  S
C63          H65   1.082       .  S
N66          N67   1.324       .  A
N66          C70   1.345       .  A
N67          C68   1.344       .  A
C68          C69   1.381       .  A
C68          H71   1.082       .  S
C69          C70   1.381       .  A
C69         C680   1.467       .  S
C70          H72   1.082       .  S
N73          N74   1.321       .  A
N73          C77   1.348       .  A
N73         Cu81   2.077       .  S
N74          C75   1.342       .  A
N74         Cu80   2.063       .  S
C75          C76   1.382       .  A
C75          H78   1.082       .  S
C76          C77   1.385       .  A
C76         C715   1.471       .  S
C77          H79   1.082       .  S
Cu80         N83   2.063       .  S
Cu81         N91   2.078       .  S
Cu82         N84   2.069       .  S
Cu82         N90   2.070       .  S
N83          N84   1.322       .  A
N83          C87   1.341       .  A
N84          C85   1.346       .  A
C85          C86   1.384       .  A
C85          H88   1.082       .  S
C86          C87   1.378       .  A
C86         C635   1.465   1_655  S
C87          H89   1.082       .  S
N90          N91   1.324       .  A
N90          C94   1.345       .  A
N91          C92   1.344       .  A
C92          C93   1.382       .  A
C92          H95   1.082       .  S
C93          C94   1.380       .  A
C93         C683   1.467       .  S
C94          H96   1.082       .  S
N97          N98   1.321       .  A
N97         C101   1.349       .  A
N97        Cu105   2.076       .  S
N98          C99   1.341       .  A
N98        Cu104   2.064       .  S
C99         C100   1.381       .  A
C99         H102   1.082       .  S
C100        C101   1.385       .  A
C100        C664   1.470       .  S
C101        H103   1.082       .  S
Cu104       N107   2.064       .  S
Cu105       N115   2.078       .  S
Cu106       N108   2.078       .  S
Cu106       N114   2.079       .  S
N107        N108   1.321       .  A
N107        C111   1.343       .  A
N108        C109   1.348       .  A
C109        C110   1.385       .  A
C109        H112   1.082       .  S
C110        C111   1.382       .  A
C110        C600   1.472       .  S
C111        H113   1.082       .  S
N114        N115   1.325       .  A
N114        C118   1.346       .  A
N115        C116   1.345       .  A
C116        C117   1.382       .  A
C116        H119   1.082       .  S
C117        C118   1.381       .  A
C117        C616   1.469       .  S
C118        H120   1.081       .  S
N121        N122   1.322       .  A
N121        C125   1.349       .  A
N121       Cu129   2.076       .  S
N122        C123   1.341       .  A
N122       Cu128   2.066       .  S
C123        C124   1.379       .  A
C123        H126   1.082       .  S
C124        C125   1.385       .  A
C124        C584   1.468       .  S
C125        H127   1.082       .  S
Cu128       N131   2.066       .  S
Cu129       N139   2.077       .  S
Cu130       N132   2.075       .  S
Cu130       N138   2.076       .  S
N131        N132   1.321       .  A
N131        C135   1.343       .  A
N132        C133   1.347       .  A
C133        C134   1.385       .  A
C133        H136   1.082       .  S
C134        C135   1.383       .  A
C134        C571   1.472       .  S
C135        H137   1.082       .  S
N138        N139   1.324       .  A
N138        C142   1.344       .  A
N139        C140   1.346       .  A
C140        C141   1.383       .  A
C140        H143   1.082       .  S
C141        C142   1.380       .  A
C141        C619   1.468       .  S
C142        H144   1.082       .  S
N145        N146   1.321       .  A
N145        C149   1.347       .  A
N145       Cu153   2.079       .  S
N146        C147   1.341       .  A
N146       Cu152   2.057       .  S
C147        C148   1.379       .  A
C147        H150   1.082       .  S
C148        C149   1.386       .  A
C148        C744   1.468       .  S
C149        H151   1.081       .  S
Cu152       N155   2.057       .  S
Cu153       N163   2.081       .  S
Cu154       N156   2.082       .  S
Cu154       N162   2.083       .  S
N155        N156   1.321       .  A
N155        C159   1.342       .  A
N156        C157   1.348       .  A
C157        C158   1.385       .  A
C157        H160   1.082       .  S
C158        C159   1.381       .  A
C158        C539   1.470       .  S
C159        H161   1.082       .  S
N162        N163   1.324       .  A
N162        C166   1.346       .  A
N163        C164   1.346       .  A
C164        C165   1.382       .  A
C164        H167   1.082       .  S
C165        C166   1.384       .  A
C165        C555   1.473       .  S
C166        H168   1.082       .  S
N169        N170   1.321       .  A
N169        C173   1.347       .  A
N169       Cu177   2.077       .  S
N170        C171   1.343       .  A
N170       Cu176   2.065       .  S
C171        C172   1.382       .  A
C171        H174   1.082       .  S
C172        C173   1.383       .  A
C172        C587   1.470       .  S
C173        H175   1.082       .  S
Cu176       N179   2.065       .  S
Cu177       N187   2.078       .  S
Cu178       N180   2.080       .  S
Cu178       N186   2.081       .  S
N179        N180   1.322       .  A
N179        C183   1.342       .  A
N180        C181   1.348       .  A
C181        C182   1.385       .  A
C181        H184   1.082       .  S
C182        C183   1.379       .  A
C182        C520   1.469       .  S
C183        H185   1.082       .  S
N186        N187   1.324       .  A
N186        C190   1.346       .  A
N187        C188   1.345       .  A
C188        C189   1.382       .  A
C188        H191   1.082       .  S
C189        C190   1.384       .  A
C189        C552   1.472       .  S
C190        H192   1.082       .  S
N193        N194   1.321       .  A
N193        C197   1.349       .  A
N193       Cu201   2.078       .  S
N194        C195   1.340       .  A
N194       Cu200   2.059       .  S
C195        C196   1.378       .  A
C195        H198   1.082       .  S
C196        C197   1.386       .  A
C196        C488   1.468       .  S
C197        H199   1.082       .  S
Cu200       N203   2.059       .  S
Cu201       N211   2.079       .  S
Cu202       N204   2.080       .  S
Cu202       N210   2.081       .  S
N203        N204   1.321       .  A
N203        C207   1.343       .  A
N204        C205   1.347       .  A
C205        C206   1.385       .  A
C205        H208   1.082       .  S
C206        C207   1.381       .  A
C206        C536   1.470       .  S
C207        H209   1.082       .  S
N210        N211   1.325       .  A
N210        C214   1.346       .  A
N211        C212   1.345       .  A
C212        C213   1.382       .  A
C212        H215   1.082       .  S
C213        C214   1.382       .  A
C213        C507   1.469       .  S
C214        H216   1.082       .  S
N217        N218   1.321       .  A
N217        C221   1.348       .  A
N217       Cu225   2.075       .  S
N218        C219   1.341       .  A
N218       Cu224   2.063       .  S
C219        C220   1.380       .  A
C219        H222   1.082       .  S
C220        C221   1.385       .  A
C220        C475   1.469       .  S
C221        H223   1.082       .  S
Cu224       N227   2.063       .  S
Cu225       N235   2.076       .  S
Cu226       N228   2.080       .  S
Cu226       N234   2.080       .  S
N227        N228   1.322       .  A
N227        C231   1.343       .  A
N228        C229   1.346       .  A
C229        C230   1.386       .  A
C229        H232   1.082       .  S
C230        C231   1.379       .  A
C230        C523   1.470       .  S
C231        H233   1.082       .  S
N234        N235   1.324       .  A
N234        C238   1.347       .  A
N235        C236   1.344       .  A
C236        C237   1.382       .  A
C236        H239   1.082       .  S
C237        C238   1.383       .  A
C237        C504   1.471       .  S
C238        H240   1.082       .  S
N241        N242   1.321       .  A
N241        C245   1.349       .  A
N241       Cu249   2.080       .  S
N242        C243   1.341       .  A
N242       Cu248   2.064       .  S
C243        C244   1.381       .  A
C243        H246   1.082       .  S
C244        C245   1.385       .  A
C244        C472   1.472       .  S
C245        H247   1.082       .  S
Cu248       N251   2.064       .  S
Cu249       N259   2.081       .  S
Cu250       N252   2.080       .  S
Cu250       N258   2.081       .  S
N251        N252   1.321       .  A
N251        C255   1.343       .  A
N252        C253   1.347       .  A
C253        C254   1.385       .  A
C253        H256   1.082       .  S
C254        C255   1.382       .  A
C254        C568   1.472       .  S
C255        H257   1.082       .  S
N258        N259   1.325       .  A
N258        C262   1.346       .  A
N259        C260   1.346       .  A
C260        C261   1.382       .  A
C260        H263   1.082       .  S
C261        C262   1.381       .  A
C261        C459   1.469       .  S
C262        H264   1.082       .  S
N265        N266   1.321       .  A
N265        C269   1.348       .  A
N265       Cu273   2.071       .  S
N266        C267   1.339       .  A
N266       Cu272   2.055       .  S
C267        C268   1.377       .  A
C267        H270   1.082       .  S
C268        C269   1.384       .  A
C268        C443   1.463       .  S
C269        H271   1.082       .  S
Cu272       N275   2.055       .  S
Cu273       N283   2.073       .  S
Cu274       N276   2.083       .  S
Cu274       N282   2.085       .  S
N275        N276   1.321       .  A
N275        C279   1.342       .  A
N276        C277   1.348       .  A
C277        C278   1.386       .  A
C277        H280   1.082       .  S
C278        C279   1.380       .  A
C278        C603   1.471       .  S
C279        H281   1.082       .  S
N282        N283   1.324       .  A
N282        C286   1.346       .  A
N283        C284   1.345       .  A
C284        C285   1.382       .  A
C284        H287   1.082       .  S
C285        C286   1.382       .  A
C285        C456   1.470       .  S
C286        H288   1.081       .  S
N289        N290   1.321       .  A
N289        C293   1.347       .  A
N289       Cu297   2.073       .  S
N290        C291   1.339       .  A
N290       Cu296   2.052       .  S
C291        C292   1.377       .  A
C291        H294   1.082       .  S
C292        C293   1.384       .  A
C292        C411   1.463       .  S
C293        H295   1.082       .  S
Cu296       N299   2.052       .  S
Cu297       N307   2.075       .  S
Cu298       N300   2.075       .  S
Cu298       N306   2.076       .  S
N299        N300   1.321       .  A
N299        C303   1.341       .  A
N300        C301   1.346       .  A
C301        C302   1.385       .  A
C301        H304   1.082       .  S
C302        C303   1.377       .  A
C302        C632   1.465       .  S
C303        H305   1.082       .  S
N306        N307   1.324       .  A
N306        C310   1.346       .  A
N307        C308   1.344       .  A
C308        C309   1.382       .  A
C308        H311   1.082       .  S
C309        C310   1.381       .  A
C309        C427   1.469       .  S
C310        H312   1.082       .  S
N313        N314   1.321       .  A
N313        C317   1.346       .  A
N313       Cu321   2.068       .  S
N314        C315   1.340       .  A
N314       Cu320   2.056       .  S
C315        C316   1.380       .  A
C315        H318   1.082       .  S
C316        C317   1.382       .  A
C316        C440   1.465       .  S
C317        H319   1.082       .  S
Cu320       N323   2.056       .  S
Cu321       N331   2.069       .  S
Cu322       N324   2.083       .  S
Cu322       N330   2.084       .  S
N323        N324   1.322       .  A
N323        C327   1.341       .  A
N324        C325   1.347       .  A
C325        C326   1.386       .  A
C325        H328   1.082       .  S
C326        C327   1.378       .  A
C326        C648   1.468       .  S
C327        H329   1.082       .  S
N330        N331   1.324       .  A
N330        C334   1.346       .  A
N331        C332   1.344       .  A
C332        C333   1.381       .  A
C332        H335   1.082       .  S
C333        C334   1.383       .  A
C333        C424   1.470       .  S
C334        H336   1.081       .  S
N337        N338   1.321       .  A
N337        C341   1.346       .  A
N337       Cu345   2.064       .  S
N338        C339   1.339       .  A
N338       Cu344   2.061       .  S
C339        C340   1.380       .  A
C339        H342   1.082       .  S
C340        C341   1.382       .  A
C340        C408   1.464       .  S
C341        H343   1.082       .  S
Cu344       N347   2.061       .  S
Cu345       N355   2.065       .  S
Cu346       N348   2.077       .  S
Cu346       N354   2.078       .  S
N347        N348   1.321       .  A
N347        C351   1.344       .  A
N348        C349   1.346       .  A
C349        C350   1.385       .  A
C349        H352   1.082       .  S
C350        C351   1.380       .  A
C350        C696   1.470       .  S
C351        H353   1.082       .  S
N354        N355   1.323       .  A
N354        C358   1.345       .  A
N355        C356   1.343       .  A
C356        C357   1.379       .  A
C356        H359   1.082       .  S
C357        C358   1.383       .  A
C357        C395   1.467       .  S
C358        H360   1.082       .  S
N361        N362   1.321       .  A
N361        C365   1.347       .  A
N361       Cu369   2.074       .  S
N362        C363   1.343       .  A
N362       Cu368   2.066       .  S
C363        C364   1.382       .  A
C363        H366   1.082       .  S
C364        C365   1.383       .  A
C364        C491   1.470       .  S
C365        H367   1.082       .  S
Cu368       N371   2.066       .  S
Cu369       N379   2.075       .  S
Cu370       N372   2.075       .  S
Cu370       N378   2.075       .  S
N371        N372   1.322       .  A
N371        C375   1.342       .  A
N372        C373   1.347       .  A
C373        C374   1.385       .  A
C373        H376   1.082       .  S
C374        C375   1.379       .  A
C374        C731   1.468       .  S
C375        H377   1.082       .  S
N378        N379   1.324       .  A
N378        C382   1.344       .  A
N379        C380   1.345       .  A
C380        C381   1.381       .  A
C380        H383   1.082       .  S
C381        C382   1.382       .  A
C381        C392   1.468       .  S
C382        H384   1.082       .  S
C385        C390   1.381   1_556  A
C385        C386   1.402       .  A
C385        O391   1.318       .  A
C386        C387   1.401   1_556  A
C386        H397   1.082       .  S
C387        C396   1.361       .  A
C387        C388   1.381       .  A
C388        C389   1.402       .  A
C388        O394   1.317       .  A
C389        C390   1.401       .  A
C389        H398   1.083       .  S
C390        C393   1.360       .  A
O391        C392   1.330       .  A
C392        C393   1.390   1_556  A
C393        H399   1.082       .  S
O394        C395   1.330       .  A
C395        C396   1.390       .  A
C396        H400   1.082   1_554  S
C401        C406   1.380       .  A
C401        C402   1.405       .  A
C401        O407   1.320       .  A
C402        C403   1.405       .  A
C402        H413   1.081       .  S
C403        C412   1.364       .  A
C403        C404   1.381       .  A
C404        C405   1.396       .  A
C404        O410   1.312       .  A
C405        C406   1.395       .  A
C405        H414   1.081       .  S
C406        C409   1.353       .  A
O407        C408   1.332       .  A
C408        C409   1.387       .  A
C409        H415   1.082       .  S
O410        C411   1.327       .  A
C411        C412   1.392       .  A
C412        H416   1.082       .  S
C417        C422   1.381       .  A
C417        C418   1.402       .  A
C417        O423   1.318       .  A
C418        C419   1.401       .  A
C418        H429   1.083       .  S
C419        C428   1.360       .  A
C419        C420   1.381       .  A
C420        C421   1.404       .  A
C420        O426   1.319       .  A
C421        C422   1.403       .  A
C421        H430   1.083       .  S
C422        C425   1.361       .  A
O423        C424   1.330       .  A
C424        C425   1.392       .  A
C425        H431   1.082       .  S
O426        C427   1.331       .  A
C427        C428   1.390       .  A
C428        H432   1.082       .  S
C433        C438   1.380       .  A
C433        C434   1.405       .  A
C433        O439   1.320       .  A
C434        C435   1.405       .  A
C434        H445   1.081       .  S
C435        C444   1.365       .  A
C435        C436   1.381       .  A
C436        C437   1.397       .  A
C436        O442   1.312       .  A
C437        C438   1.396       .  A
C437        H446   1.081       .  S
C438        C441   1.354       .  A
O439        C440   1.331       .  A
C440        C441   1.387       .  A
C441        H447   1.082       .  S
O442        C443   1.327       .  A
C443        C444   1.392       .  A
C444        H448   1.082       .  S
C449        C454   1.380   1_554  A
C449        C450   1.402       .  A
C449        O455   1.318   1_554  A
C450        C451   1.402       .  A
C450        H461   1.082       .  S
C451        C460   1.361       .  A
C451        C452   1.381       .  A
C452        C453   1.404   1_554  A
C452        O458   1.319       .  A
C453        C454   1.403       .  A
C453        H462   1.082       .  S
C454        C457   1.362       .  A
O455        C456   1.330       .  A
C456        C457   1.392       .  A
C457        H463   1.082       .  S
O458        C459   1.331       .  A
C459        C460   1.390       .  A
C460        H464   1.082       .  S
C465        C470   1.380       .  A
C465        C466   1.408       .  A
C465        O471   1.323       .  A
C466        C467   1.407       .  A
C466        H477   1.081       .  S
C467        C476   1.367       .  A
C467        C468   1.381       .  A
C468        C469   1.398       .  A
C468        O474   1.314       .  A
C469        C470   1.398       .  A
C469        H478   1.081       .  S
C470        C473   1.355       .  A
O471        C472   1.333       .  A
C472        C473   1.389       .  A
C473        H479   1.082       .  S
O474        C475   1.328       .  A
C475        C476   1.393       .  A
C476        H480   1.082       .  S
C481        C486   1.380       .  A
C481        C482   1.399       .  A
C481        O487   1.314       .  A
C482        C483   1.398       .  A
C482        H493   1.081       .  S
C483        C492   1.357       .  A
C483        C484   1.380       .  A
C484        C485   1.407       .  A
C484        O490   1.321       .  A
C485        C486   1.405       .  A
C485        H494   1.081       .  S
C486        C489   1.366       .  A
O487        C488   1.328       .  A
C488        C489   1.393       .  A
C489        H495   1.082       .  S
O490        C491   1.332       .  A
C491        C492   1.389       .  A
C492        H496   1.082       .  S
C497        C502   1.380       .  A
C497        C498   1.404       .  A
C497        O503   1.320       .  A
C498        C499   1.403       .  A
C498        H509   1.083       .  S
C499        C508   1.361       .  A
C499        C500   1.381       .  A
C500        C501   1.402       .  A
C500        O506   1.319       .  A
C501        C502   1.402       .  A
C501        H510   1.083       .  S
C502        C505   1.359       .  A
O503        C504   1.331       .  A
C504        C505   1.391       .  A
C505        H511   1.082       .  S
O506        C507   1.330       .  A
C507        C508   1.391       .  A
C508        H512   1.082       .  S
C513        C518   1.380       .  A
C513        C514   1.401       .  A
C513        O519   1.316       .  A
C514        C515   1.400   1_565  A
C514        H525   1.082       .  S
C515        C524   1.361       .  A
C515        C516   1.380   1_545  A
C516        C517   1.405       .  A
C516        O522   1.318   1_565  A
C517        C518   1.403       .  A
C517        H526   1.082       .  S
C518        C521   1.364       .  A
O519        C520   1.329       .  A
C520        C521   1.392       .  A
C521        H527   1.082       .  S
O522        C523   1.331       .  A
C523        C524   1.390       .  A
C524        H528   1.082       .  S
C529        C534   1.381       .  A
C529        C530   1.402   1_545  A
C529        O535   1.318       .  A
C530        C531   1.401       .  A
C530        H541   1.082       .  S
C531        C540   1.359       .  A
C531        C532   1.380       .  A
C532        C533   1.403       .  A
C532        O538   1.319   1_455  A
C533        C534   1.403   1_565  A
C533        H542   1.082       .  S
C534        C537   1.360       .  A
O535        C536   1.330       .  A
C536        C537   1.392       .  A
C537        H543   1.082       .  S
O538        C539   1.330       .  A
C539        C540   1.391   1_655  A
C540        H544   1.082       .  S
C545        C550   1.380       .  A
C545        C546   1.403       .  A
C545        O551   1.319       .  A
C546        C547   1.402       .  A
C546        H557   1.082       .  S
C547        C556   1.361       .  A
C547        C548   1.380       .  A
C548        C549   1.405       .  A
C548        O554   1.320       .  A
C549        C550   1.404       .  A
C549        H558   1.082       .  S
C550        C553   1.363       .  A
O551        C552   1.330       .  A
C552        C553   1.392       .  A
C553        H559   1.082       .  S
O554        C555   1.331       .  A
C555        C556   1.391       .  A
C556        H560   1.082       .  S
C561        C566   1.380   1_545  A
C561        C562   1.402   1_554  A
C561        O567   1.319       .  A
C562        C563   1.402   1_545  A
C562        H573   1.082       .  S
C563        C572   1.359       .  A
C563        C564   1.380       .  A
C564        C565   1.403   1_556  A
C564        O570   1.320       .  A
C565        C566   1.403       .  A
C565        H574   1.082       .  S
C566        C569   1.361   1_565  A
O567        C568   1.330       .  A
C568        C569   1.392       .  A
C569        H575   1.082       .  S
O570        C571   1.331       .  A
C571        C572   1.391       .  A
C572        H576   1.082       .  S
C577        C582   1.380       .  A
C577        C578   1.399       .  A
C577        O583   1.314       .  A
C578        C579   1.398       .  A
C578        H589   1.081       .  S
C579        C588   1.357       .  A
C579        C580   1.380       .  A
C580        C581   1.407       .  A
C580        O586   1.321       .  A
C581        C582   1.406       .  A
C581        H590   1.081       .  S
C582        C585   1.367       .  A
O583        C584   1.328       .  A
C584        C585   1.393       .  A
C585        H591   1.082       .  S
O586        C587   1.332       .  A
C587        C588   1.389       .  A
C588        H592   1.082       .  S
C593        C598   1.380   1_556  A
C593        C594   1.403       .  A
C593        O599   1.320   1_556  A
C594        C595   1.403       .  A
C594        H605   1.083       .  S
C595        C604   1.360       .  A
C595        C596   1.381       .  A
C596        C597   1.402   1_556  A
C596        O602   1.319       .  A
C597        C598   1.402       .  A
C597        H606   1.082       .  S
C598        C601   1.359       .  A
O599        C600   1.331       .  A
C600        C601   1.391       .  A
C601        H607   1.082       .  S
O602        C603   1.330       .  A
C603        C604   1.392       .  A
C604        H608   1.082       .  S
C609        C614   1.381   1_556  A
C609        C610   1.404       .  A
C609        O615   1.319   1_556  A
C610        C611   1.403       .  A
C610        H621   1.082       .  S
C611        C620   1.362       .  A
C611        C612   1.381       .  A
C612        C613   1.401   1_556  A
C612        O618   1.317       .  A
C613        C614   1.401       .  A
C613        H622   1.082       .  S
C614        C617   1.360       .  A
O615        C616   1.331       .  A
C616        C617   1.390       .  A
C617        H623   1.082       .  S
O618        C619   1.329       .  A
C619        C620   1.391       .  A
C620        H624   1.082       .  S
C625        C630   1.381       .  A
C625        C626   1.402       .  A
C625        O631   1.316       .  A
C626        C627   1.401       .  A
C626        H637   1.082       .  S
C627        C636   1.362       .  A
C627        C628   1.381       .  A
C628        C629   1.401       .  A
C628        O634   1.315       .  A
C629        C630   1.399       .  A
C629        H638   1.082       .  S
C630        C633   1.360       .  A
O631        C632   1.330       .  A
C632        C633   1.389       .  A
C633        H639   1.082       .  S
O634        C635   1.329       .  A
C635        C636   1.391       .  A
C636        H640   1.082   1_455  S
C641        C646   1.380       .  A
C641        C642   1.404       .  A
C641        O647   1.317       .  A
C642        C643   1.402       .  A
C642        H653   1.082       .  S
C643        C652   1.364       .  A
C643        C644   1.380       .  A
C644        C645   1.402       .  A
C644        O650   1.315       .  A
C645        C646   1.400       .  A
C645        H654   1.082       .  S
C646        C649   1.362       .  A
O647        C648   1.331       .  A
C648        C649   1.390       .  A
C649        H655   1.082       .  S
O650        C651   1.330       .  A
C651        C652   1.391       .  A
C652        H656   1.082       .  S
C657        C662   1.380       .  A
C657        C658   1.406       .  A
C657        O663   1.322       .  A
C658        C659   1.406       .  A
C658        H669   1.081       .  S
C659        C668   1.364       .  A
C659        C660   1.381       .  A
C660        C661   1.399       .  A
C660        O666   1.316       .  A
C661        C662   1.399       .  A
C661        H670   1.081       .  S
C662        C665   1.356       .  A
O663        C664   1.332       .  A
C664        C665   1.389       .  A
C665        H671   1.082       .  S
O666        C667   1.329       .  A
C667        C668   1.392       .  A
C668        H672   1.082       .  S
C673        C678   1.381       .  A
C673        C674   1.401       .  A
C673        O679   1.317       .  A
C674        C675   1.401       .  A
C674        H685   1.083       .  S
C675        C684   1.359       .  A
C675        C676   1.381       .  A
C676        C677   1.403       .  A
C676        O682   1.318       .  A
C677        C678   1.402       .  A
C677        H686   1.083       .  S
C678        C681   1.361       .  A
O679        C680   1.329       .  A
C680        C681   1.391       .  A
C681        H687   1.082       .  S
O682        C683   1.330       .  A
C683        C684   1.390       .  A
C684        H688   1.082       .  S
C689        C694   1.381   1_554  A
C689        C690   1.403       .  A
C689        O695   1.318       .  A
C690        C691   1.402       .  A
C690        H701   1.083       .  S
C691        C700   1.361       .  A
C691        C692   1.380   1_554  A
C692        C693   1.403       .  A
C692        O698   1.318       .  A
C693        C694   1.402       .  A
C693        H702   1.083       .  S
C694        C697   1.361   1_556  A
O695        C696   1.331       .  A
C696        C697   1.391       .  A
C697        H703   1.082   1_554  S
O698        C699   1.331       .  A
C699        C700   1.391   1_556  A
C700        H704   1.083       .  S
C705        C710   1.380       .  A
C705        C706   1.400       .  A
C705        O711   1.315       .  A
C706        C707   1.399       .  A
C706        H717   1.081       .  S
C707        C716   1.357       .  A
C707        C708   1.380       .  A
C708        C709   1.407       .  A
C708        O714   1.321       .  A
C709        C710   1.406       .  A
C709        H718   1.081       .  S
C710        C713   1.366       .  A
O711        C712   1.329       .  A
C712        C713   1.393       .  A
C713        H719   1.082       .  S
O714        C715   1.332       .  A
C715        C716   1.390       .  A
C716        H720   1.082       .  S
C721        C726   1.380   1_554  A
C721        C722   1.403   1_565  A
C721        O727   1.317       .  A
C722        C723   1.402       .  A
C722        H733   1.082       .  S
C723        C732   1.363       .  A
C723        C724   1.380   1_554  A
C724        C725   1.403   1_545  A
C724        O730   1.316       .  A
C725        C726   1.401       .  A
C725        H734   1.082       .  S
C726        C729   1.362       .  A
O727        C728   1.331       .  A
C728        C729   1.390   1_554  A
C729        H735   1.082       .  S
O730        C731   1.330       .  A
C731        C732   1.391   1_556  A
C732        H736   1.082       .  S
C737        C742   1.380       .  A
C737        C738   1.400       .  A
C737        O743   1.316       .  A
C738        C739   1.399       .  A
C738        H749   1.081       .  S
C739        C748   1.358       .  A
C739        C740   1.380       .  A
C740        C741   1.405       .  A
C740        O746   1.320       .  A
C741        C742   1.404       .  A
C741        H750   1.081       .  S
C742        C745   1.363       .  A
O743        C744   1.329       .  A
C744        C745   1.391       .  A
C745        H751   1.082       .  S
O746        C747   1.331       .  A
C747        C748   1.390       .  A
C748        H752   1.082       .  S
C753        C758   1.381   1_554  A
C753        C754   1.404       .  A
C753        O759   1.319       .  A
C754        C755   1.403       .  A
C754        H765   1.082       .  S
C755        C764   1.362       .  A
C755        C756   1.381   1_554  A
C756        C757   1.402       .  A
C756        O762   1.317       .  A
C757        C758   1.401       .  A
C757        H766   1.082       .  S
C758        C761   1.360   1_556  A
O759        C760   1.331       .  A
C760        C761   1.390       .  A
C761        H767   1.082   1_554  S
O762        C763   1.330       .  A
C763        C764   1.392   1_556  A
C764        H768   1.082       .  S
