geometry optimzed in LAMMPS
_audit_creation_date              2020-12-01 
_audit_creation_method            'lammps2cif' 
_symmetry_space_group_name_H-M    'P1' 
_symmetry_Int_Tables_number       1 
_symmetry_cell_setting            triclinic 
loop_ 
_symmetry_equiv_pos_as_xyz 
  x,y,z 
_cell_length_a                    29.50415623 
_cell_length_b                    29.526888801710715 
_cell_length_c                    35.200484932162 
_cell_angle_alpha                 89.85171340617063 
_cell_angle_beta                  89.99601034799525 
_cell_angle_gamma                 119.97116081833649 
loop_ 
_atom_site_label 
_atom_site_type_symbol 
_atom_site_fract_x 
_atom_site_fract_y 
_atom_site_fract_z 
_atom_site_charge 
O1          O  0.81238438  0.61956795  0.38845079    -0.71200
O2          O  0.84990321  0.64141048  0.27782844    -0.72200
O3          O  0.90735469  0.66797996  0.34723045    -0.60800
O4          O  0.75665929  0.59286209  0.31960320    -0.69200
O5          O  0.75501413  0.66725317  0.31931908    -0.68800
O6          O  0.90784621  0.74331975  0.35027001    -0.60000
O7          O  0.85205733  0.71765585  0.27982429    -0.72500
O8          O  0.81127828  0.69422832  0.38962103    -0.71300
Cu9        Cu  0.83171988  0.62801537  0.33323762     1.04600
Cu10       Cu  0.83156672  0.70838209  0.33478220     1.04300
C11         C  0.80630061  0.65362855  0.40648196     0.95000
C12         C  0.85557925  0.68248499  0.26123404     0.94100
C13         C  0.93128638  0.71693832  0.35396376     0.86300
C14         C  0.73212929  0.61766928  0.31454639     0.92500
O15         O  0.18402370  0.83108000  0.35204517    -0.71200
O16         O  0.14672650  0.79960126  0.46294448    -0.72200
O17         O  0.08946978  0.78449444  0.39363701    -0.60800
O18         O  0.24061266  0.84462206  0.42088159    -0.69200
O19         O  0.24748118  0.92240267  0.42845784    -0.68800
O20         O  0.09544939  0.86207712  0.39971086    -0.60000
O21         O  0.15128763  0.87667432  0.46862482    -0.72500
O22         O  0.19006608  0.90865449  0.35889408    -0.71300
Cu23       Cu  0.16494889  0.81222498  0.40710284     1.04600
Cu24       Cu  0.17152630  0.89525168  0.41418028     1.04300
C25         C  0.19130219  0.87418946  0.33785941     0.95000
C26         C  0.14387080  0.83394615  0.48328129     0.94100
C27         C  0.06877995  0.81353060  0.39152580     0.86300
C28         C  0.26757796  0.89268797  0.43002953     0.92500
O29         O  0.57888297  0.09504074  0.01099002    -0.71200
O30         O  0.42999155  0.02927973  0.48193237    -0.72200
O31         O  0.48459994  0.05157931  0.05161920    -0.60800
O32         O  0.52719614  0.07403596  0.44357313    -0.69200
O33         O  0.52339053  0.99707254  0.44118145    -0.68800
O34         O  0.47939712  0.97387797  0.05201167    -0.60000
O35         O  0.42431803  0.95171286  0.47672203    -0.72500
O36         O  0.57691921  0.01893648  0.01383922    -0.71300
Cu37       Cu  0.50455022  0.06359177  0.49853569     1.04600
Cu38       Cu  0.49913210  0.98073962  0.49509900     1.04300
C39         C  0.60136763  0.06863313  0.01803195     0.95000
C40         C  0.40396230  0.98102445  0.47317782     0.94100
C41         C  0.47715092  0.01057846  0.06938500     0.86300
C42         C  0.53149813  0.03921114  0.42498214     0.92500
O43         O  0.08556058  0.32488920  0.15184923    -0.71200
O44         O  0.23532446  0.41542890  0.18277988    -0.72200
O45         O  0.18121980  0.38264837  0.11259076    -0.60800
O46         O  0.14072227  0.35852967  0.22274252    -0.69200
O47         O  0.15011165  0.28842765  0.22264387    -0.68800
O48         O  0.19005737  0.31222321  0.11213367    -0.60000
O49         O  0.24598129  0.34611531  0.18304694    -0.72500
O50         O  0.09573426  0.25528127  0.15244684    -0.71300
Cu51       Cu  0.16028101  0.37273046  0.16749715     1.04600
Cu52       Cu  0.17092396  0.29810568  0.16759866     1.04300
C53         C  0.06740601  0.27600053  0.14643217     0.95000
C54         C  0.26398280  0.39499848  0.18845290     0.94100
C55         C  0.19046105  0.35052273  0.09477068     0.86300
C56         C  0.14037475  0.32038784  0.24025054     0.92500
O57         O  0.75403156  0.15574968  0.06523100    -0.71200
O58         O  0.90202115  0.24836864  0.09819408    -0.72200
O59         O  0.84919997  0.21488923  0.02703007    -0.60800
O60         O  0.80597158  0.18848374  0.13648743    -0.69200
O61         O  0.81878443  0.12046132  0.13717155    -0.68800
O62         O  0.86200862  0.14687235  0.02777040    -0.60000
O63         O  0.91398894  0.17986829  0.09907731    -0.72500
O64         O  0.76487672  0.08661281  0.06571287    -0.71300
Cu65       Cu  0.82734718  0.20419253  0.08172998     1.04600
Cu66       Cu  0.84025483  0.13096718  0.08240891     1.04300
C67         C  0.73628982  0.10707138  0.05937146     0.95000
C68         C  0.93103306  0.22852091  0.10468880     0.94100
C69         C  0.86125972  0.18422076  0.00997010     0.86300
C70         C  0.80756605  0.15163752  0.15439265     0.92500
O71         O  0.53021393  0.48583798  0.20273541    -0.71200
O72         O  0.47891500  0.46481701  0.31018582    -0.72200
O73         O  0.43104304  0.42680304  0.23791049    -0.60800
O74         O  0.57666689  0.52364822  0.27455510    -0.69200
O75         O  0.56480874  0.59186258  0.26886124    -0.68800
O76         O  0.41833537  0.49455385  0.23258538    -0.60000
O77         O  0.46587906  0.53239414  0.30503722    -0.72500
O78         O  0.51661662  0.55298405  0.19666039    -0.71300
Cu79       Cu  0.50461252  0.47296255  0.25655401     1.04600
Cu80       Cu  0.49087874  0.54532282  0.25060053     1.04300
C81         C  0.53065190  0.52198913  0.18253699     0.95000
C82         C  0.46573588  0.49604520  0.32494271     0.94100
C83         C  0.40185516  0.44568223  0.22893657     0.86300
C84         C  0.59377407  0.57269441  0.27772493     0.92500
O85         O  0.08732029  0.32784590  0.43410604    -0.71200
O86         O  0.17753781  0.26902102  0.40088717    -0.72200
O87         O  0.14502993  0.28803942  0.47205651    -0.60800
O88         O  0.12066545  0.30782036  0.36276288    -0.69200
O89         O  0.18999087  0.38775620  0.36390570    -0.68800
O90         O  0.21433127  0.36797414  0.47348224    -0.60000
O91         O  0.24780896  0.34819936  0.40214387    -0.72500
O92         O  0.15712286  0.40735640  0.43531701    -0.71300
Cu93       Cu  0.13018764  0.29548039  0.41747467     1.04600
Cu94       Cu  0.20476873  0.38064177  0.41873975     1.04300
C95         C  0.10807521  0.37681877  0.44046640     0.95000
C96         C  0.22658127  0.29922195  0.39559644     0.94100
C97         C  0.18284176  0.32504326  0.49014558     0.86300
C98         C  0.15250520  0.35033370  0.34581843     0.92500
O99         O  0.31132084  0.07517444  0.31871236    -0.71200
O100        O  0.23892561  0.15428826  0.34640052    -0.72200
O101        O  0.27266290  0.13032087  0.27719294    -0.60800
O102        O  0.27827678  0.10018757  0.38840439    -0.69200
O103        O  0.35612295  0.17196078  0.39267706    -0.68800
O104        O  0.34911758  0.20365624  0.28240155    -0.60000
O105        O  0.31521808  0.22747690  0.35280957    -0.72500
O106        O  0.38791484  0.14864629  0.32225301    -0.71300
Cu107      Cu  0.27261607  0.11249348  0.33256320     1.04600
Cu108      Cu  0.35472961  0.19055625  0.33779819     1.04300
C109        C  0.36090199  0.09994206  0.31450616     0.95000
C110        C  0.26521642  0.20268181  0.35482951     0.94100
C111        C  0.31109379  0.17062352  0.26205739     0.86300
C112        C  0.31792519  0.13178953  0.40813467     0.92500
O113        O  0.91167631  0.49067599  0.01509961    -0.71200
O114        O  0.01256733  0.43982858  0.48265459    -0.72200
O115        O  0.96777900  0.44954696  0.05259781    -0.60800
O116        O  0.95733604  0.48057681  0.44290270    -0.69200
O117        O  0.02898864  0.55893871  0.44291044    -0.68800
O118        O  0.03917272  0.52809399  0.05269827    -0.60000
O119        O  0.08333433  0.51870716  0.48348900    -0.72500
O120        O  0.98214572  0.56976257  0.01615613    -0.71300
Cu121      Cu  0.96582543  0.46843507  0.49793364     1.04600
Cu122      Cu  0.04163933  0.55278589  0.49842619     1.04300
C123        C  0.93307770  0.53960656  0.02169711     0.95000
C124        C  0.06179674  0.46956264  0.47766870     0.94100
C125        C  0.00711669  0.48602161  0.06995193     0.86300
C126        C  0.99055104  0.52180937  0.42530725     0.92500
O127        O  0.70727827  0.86547421  0.22094751    -0.71200
O128        O  0.68052388  0.88259250  0.11146164    -0.72200
O129        O  0.65245507  0.90769284  0.18274830    -0.60800
O130        O  0.73564979  0.84134274  0.15005223    -0.69200
O131        O  0.66403997  0.76305364  0.15067460    -0.68800
O132        O  0.58014429  0.82999202  0.18431993    -0.60000
O133        O  0.60778371  0.80517085  0.11327814    -0.72500
O134        O  0.63483985  0.78777411  0.22245110    -0.71300
Cu135      Cu  0.69643320  0.87695547  0.16626693     1.04600
Cu136      Cu  0.61919776  0.79367601  0.16772356     1.04300
C137        C  0.67462772  0.82456147  0.23914003     0.95000
C138        C  0.64019013  0.84607402  0.09501742     0.94100
C139        C  0.60341993  0.87945186  0.18916831     0.86300
C140        C  0.71319337  0.79212822  0.14461326     0.92500
O141        O  0.83597441  0.59783383  0.06647753    -0.71200
O142        O  0.74105721  0.65230252  0.09858817    -0.72200
O143        O  0.77774144  0.63473703  0.02745681    -0.60800
O144        O  0.80063173  0.61528163  0.13740391    -0.69200
O145        O  0.86866152  0.69598714  0.13901559    -0.68800
O146        O  0.84469283  0.71604427  0.02990150    -0.60000
O147        O  0.80940049  0.73263969  0.10100601    -0.72500
O148        O  0.90408005  0.67840343  0.06778392    -0.71300
Cu149      Cu  0.78639534  0.62222923  0.08246090     1.04600
Cu150      Cu  0.85905692  0.70854568  0.08446847     1.04300
C151        C  0.88474783  0.62959652  0.06129847     0.95000
C152        C  0.76045907  0.70097040  0.10561080     0.94100
C153        C  0.80876517  0.67817639  0.01118412     0.86300
C154        C  0.83763674  0.65292635  0.15566043     0.92500
O155        O  0.54032721  0.07538885  0.19241349    -0.71200
O156        O  0.56037359  0.05340672  0.30249923    -0.72200
O157        O  0.59063525  0.02850562  0.23149858    -0.60800
O158        O  0.51140678  0.09953456  0.26315882    -0.69200
O159        O  0.43768864  0.02288591  0.26366034    -0.68800
O160        O  0.51672851  0.95219898  0.22949668    -0.60000
O161        O  0.48795872  0.97568783  0.30085733    -0.72500
O162        O  0.46624238  0.99913973  0.19171770    -0.71300
Cu163      Cu  0.55335007  0.06680894  0.24733892     1.04600
Cu164      Cu  0.47456473  0.98480458  0.24633384     1.04300
C165        C  0.50040192  0.04047799  0.17464459     0.95000
C166        C  0.52621246  0.01174669  0.31924393     0.94100
C167        C  0.56625890  0.97941208  0.22493084     0.86300
C168        C  0.46243680  0.07217513  0.26966143     0.92500
O169        O  0.35660705  0.09167112  0.10217173    -0.71200
O170        O  0.44025487  0.24647569  0.07870705    -0.72200
O171        O  0.39806669  0.18491608  0.14606244    -0.60800
O172        O  0.39959660  0.15540551  0.03435379    -0.69200
O173        O  0.32531680  0.15643022  0.02749508    -0.68800
O174        O  0.32405712  0.18630584  0.13855098    -0.60000
O175        O  0.36662184  0.24845585  0.07092073    -0.72500
O176        O  0.28358506  0.09484895  0.09452007    -0.71300
Cu177      Cu  0.40119371  0.16940653  0.09066148     1.04600
Cu178      Cu  0.32240060  0.17153245  0.08264376     1.04300
C179        C  0.30660200  0.06921295  0.10276370     0.95000
C180        C  0.41659376  0.27135494  0.06996063     0.94100
C181        C  0.36040602  0.18929479  0.15996776     0.86300
C182        C  0.36342277  0.15327634  0.01313491     0.92500
O183        O  0.48767554  0.53246149  0.05627348    -0.71200
O184        O  0.43774874  0.48382665  0.44827038    -0.72200
O185        O  0.43486509  0.43353181  0.02059536    -0.60800
O186        O  0.48263773  0.57842929  0.48854694    -0.69200
O187        O  0.55919317  0.58113938  0.48702420    -0.68800
O188        O  0.50680272  0.42749725  0.02340807    -0.60000
O189        O  0.51282009  0.48342623  0.44950369    -0.72500
O190        O  0.55874218  0.52495034  0.06059257    -0.71300
Cu191      Cu  0.44441044  0.50323650  0.50374622     1.04600
Cu192      Cu  0.52605258  0.50559131  0.50397415     1.04300
C193        C  0.52528304  0.53496261  0.07573239     0.95000
C194        C  0.47318253  0.47854242  0.43135717     0.94100
C195        C  0.45749243  0.40729895  0.02830001     0.86300
C196        C  0.53174368  0.60322574  0.48207416     0.92500
O197        O  0.17364979  0.86025257  0.21669412    -0.71200
O198        O  0.14145580  0.82008898  0.10615697    -0.72200
O199        O  0.10588724  0.76738087  0.17720016    -0.60800
O200        O  0.20795808  0.91397828  0.14520671    -0.69200
O201        O  0.27237333  0.89586920  0.14340025    -0.68800
O202        O  0.16943715  0.74786898  0.17607803    -0.60000
O203        O  0.20481039  0.80025643  0.10546297    -0.72500
O204        O  0.23691790  0.84035826  0.21421197    -0.71300
Cu205      Cu  0.15511162  0.84129217  0.16133890     1.04600
Cu206      Cu  0.22318785  0.82060231  0.15963922     1.04300
C207        C  0.20907303  0.85423699  0.23309260     0.95000
C208        C  0.16848080  0.80374037  0.08855544     0.94100
C209        C  0.12170844  0.73480069  0.18247447     0.86300
C210        C  0.25583974  0.92816828  0.13865439     0.92500
O211        O  0.95250484  0.48358970  0.19366362    -0.71200
O212        O  0.98175523  0.52973585  0.30223001    -0.72200
O213        O  0.01597658  0.58111366  0.22965011    -0.60800
O214        O  0.91996690  0.43322657  0.26548932    -0.69200
O215        O  0.98801952  0.42051132  0.26504587    -0.68800
O216        O  0.08303247  0.56676881  0.23063063    -0.60000
O217        O  0.04971582  0.51678285  0.30233770    -0.72500
O218        O  0.02119605  0.47178435  0.19287959    -0.71300
Cu219      Cu  0.96524536  0.50754798  0.24774596     1.04600
Cu220      Cu  0.03774119  0.49337898  0.24775143     1.04300
C221        C  0.98283514  0.47174087  0.17591723     0.95000
C222        C  0.01938116  0.52909652  0.31970575     0.94100
C223        C  0.06448382  0.59674060  0.22390422     0.86300
C224        C  0.93955173  0.40383308  0.27141955     0.92500
O225        O  0.92067426  0.24256132  0.31792789    -0.71200
O226        O  0.84345501  0.09244867  0.34667025    -0.72200
O227        O  0.87167346  0.14783655  0.27701027    -0.60800
O228        O  0.89019223  0.18601937  0.38790992    -0.69200
O229        O  0.81725173  0.19047368  0.38594549    -0.68800
O230        O  0.79666712  0.14837508  0.27677639    -0.60000
O231        O  0.76841091  0.09288768  0.34787328    -0.72500
O232        O  0.84666059  0.24489995  0.31525546    -0.71300
Cu233      Cu  0.88408790  0.16725307  0.33237804     1.04600
Cu234      Cu  0.80453641  0.16916271  0.33145651     1.04300
C235        C  0.89634755  0.26724274  0.31117602     0.95000
C236        C  0.79435928  0.06914109  0.35270931     0.94100
C237        C  0.83156307  0.14286229  0.25937647     0.86300
C238        C  0.85575487  0.19332493  0.40442491     0.92500
O239        O  0.63429378  0.85402250  0.47237554    -0.71200
O240        O  0.61080234  0.80740470  0.36377942    -0.72200
O241        O  0.59480255  0.75731232  0.43577611    -0.60800
O242        O  0.65044983  0.90525144  0.40052165    -0.69200
O243        O  0.73006407  0.91516146  0.39803323    -0.68800
O244        O  0.67438493  0.76715376  0.43317271    -0.60000
O245        O  0.69106139  0.81877365  0.36112890    -0.72500
O246        O  0.71445506  0.86512558  0.46977760    -0.71300
Cu247      Cu  0.61979994  0.83061528  0.41818304     1.04600
Cu248      Cu  0.70527437  0.84189039  0.41544515     1.04300
C249        C  0.67758761  0.86557764  0.48842761     0.95000
C250        C  0.64782759  0.80732680  0.34504537     0.94100
C251        C  0.62566240  0.73915651  0.44075741     0.86300
C252        C  0.69918234  0.93333312  0.39313328     0.92500
C253        C  0.71993241  0.98705779  0.37844012    -0.14700
C254        C  0.76948103  0.01466031  0.36601753    -0.29900
H255        H  0.69452472  0.00384838  0.37768104     0.14300
H256        H  0.79430574  0.99718162  0.36686826     0.14900
C257        C  0.90608473  0.35030270  0.28613301    -0.14700
C258        C  0.92721574  0.32159380  0.29782589    -0.29900
H259        H  0.86405823  0.33456427  0.28761872     0.14300
H260        H  0.96937961  0.33801485  0.29650594     0.14900
C261        C  0.10039675  0.64934276  0.20889447    -0.14700
C262        C  0.08434209  0.68215310  0.19692422    -0.29900
H263        H  0.14159906  0.66102834  0.20708051     0.14300
H264        H  0.04325962  0.67086875  0.19886097     0.14900
C265        C  0.55534035  0.65743522  0.46809994    -0.14700
C266        C  0.60501715  0.68560119  0.45582597    -0.29900
H267        H  0.52986907  0.67414606  0.46675963     0.14300
H268        H  0.63089044  0.66936746  0.45709679     0.14900
C269        C  0.27363238  0.01372699  0.11398718    -0.14700
C270        C  0.29209058  0.98235863  0.12539116    -0.29900
H271        H  0.23164248  0.99855183  0.11396071     0.14300
H272        H  0.33386471  0.99646433  0.12496647     0.14900
C273        C  0.42592850  0.35332727  0.04308909    -0.14700
C274        C  0.44786681  0.32643270  0.05737219    -0.29900
H275        H  0.36829790  0.32968279  0.54030481     0.14300
H276        H  0.49021963  0.34453008  0.05831454     0.14900
C277        C  0.64127743  0.79713005  0.30395367    -0.14700
C278        C  0.68219726  0.82170758  0.28019131    -0.29900
H279        H  0.60175074  0.77623820  0.29265395     0.14300
H280        H  0.72113155  0.84682173  0.29161201     0.14900
C281        C  0.67202978  0.87451739  0.03016759    -0.14700
C282        C  0.63161707  0.84915775  0.05413322    -0.29900
H283        H  0.71164407  0.89579651  0.04127906     0.14300
H284        H  0.59267363  0.82356791  0.04289999     0.14900
C285        C  0.74555974  0.77027595  0.13081430    -0.14700
C286        C  0.72596973  0.72040267  0.11969209    -0.29900
H287        H  0.78746203  0.79709987  0.12895130     0.14300
H288        H  0.68413723  0.69325677  0.12138955     0.14900
C289        C  0.59614091  0.95470295  0.21156923    -0.14700
C290        C  0.57310475  0.90369314  0.20262259    -0.29900
H291        H  0.63827305  0.97941976  0.20868849     0.14300
H292        H  0.53102345  0.87883956  0.20570668     0.14900
C293        C  0.98522500  0.52466248  0.38394499    -0.14700
C294        C  0.02660284  0.53994579  0.36077370    -0.29900
H295        H  0.94598174  0.50573586  0.37210597     0.14300
H296        H  0.06512620  0.55315583  0.37282166     0.14900
C297        C  0.01503158  0.48146482  0.11074017    -0.14700
C298        C  0.97446812  0.46092923  0.13497114    -0.29900
H299        H  0.05466473  0.50332970  0.12176057     0.14300
H300        H  0.93488645  0.44457490  0.12406921     0.14900
C301        C  0.89997146  0.56026708  0.03621010    -0.14700
C302        C  0.91917777  0.61022420  0.04708378    -0.29900
H303        H  0.85822619  0.53293488  0.03848279     0.14300
H304        H  0.96085898  0.63777122  0.04481498     0.14900
C305        C  0.36185338  0.14506761  0.47027945    -0.14700
C306        C  0.31763049  0.12383417  0.44962552    -0.29900
H307        H  0.39955053  0.16281704  0.45601969     0.14300
H308        H  0.27992108  0.10340259  0.46382844     0.14900
C309        C  0.31288837  0.17665898  0.22035086    -0.14700
C310        C  0.35849411  0.19579738  0.20139815    -0.29900
H311        H  0.27619462  0.15764249  0.20480996     0.14300
H312        H  0.39471840  0.20993698  0.21720710     0.14900
C313        C  0.43544089  0.09848952  0.28517373    -0.14700
C314        C  0.38664918  0.07216944  0.29922506    -0.29900
H315        H  0.45716281  0.14093460  0.28613558     0.14300
H316        H  0.36449701  0.02975544  0.29800806     0.14900
C317        C  0.07471411  0.39766478  0.45420914    -0.14700
C318        C  0.09468906  0.44794413  0.46448952    -0.29900
H319        H  0.03283270  0.37085744  0.45624600     0.14300
H320        H  0.13658267  0.47466106  0.46240650     0.14900
C321        C  0.23610911  0.22833468  0.36775351    -0.14700
C322        C  0.25878945  0.27733597  0.38136258    -0.29900
H323        H  0.19367604  0.20476187  0.36715524     0.14300
H324        H  0.30114099  0.30164018  0.38171656     0.14900
C325        C  0.45328977  0.49234506  0.36587366    -0.14700
C326        C  0.47074125  0.46925294  0.39016214    -0.29900
H327        H  0.43641435  0.51506470  0.37680682     0.14300
H328        H  0.49180236  0.45056799  0.37928426     0.14900
C329        C  0.54471788  0.52531399  0.14204122    -0.14700
C330        C  0.52717859  0.54668438  0.11648363    -0.29900
H331        H  0.56250925  0.50282042  0.13240318     0.14300
H332        H  0.50550666  0.56538391  0.12605699     0.14900
C333        C  0.85791833  0.20247710  0.44556000    -0.14700
C334        C  0.87472848  0.17874756  0.46965790    -0.29900
H335        H  0.83738709  0.22168626  0.45649131     0.14300
H336        H  0.89104599  0.15558766  0.45859446     0.14900
C337        C  0.82721801  0.13312046  0.21818430    -0.14700
C338        C  0.79987562  0.14781928  0.19579552    -0.29900
H339        H  0.85248872  0.12032288  0.20546789     0.14300
H340        H  0.77840054  0.16514563  0.20827474     0.14900
C341        C  0.13127636  0.31402681  0.28152767    -0.14700
C342        C  0.14824647  0.35562341  0.30455005    -0.29900
H343        H  0.11789277  0.27547514  0.29365421     0.14300
H344        H  0.16661455  0.39476919  0.29247765     0.14900
C345        C  0.17934710  0.31536732  0.03018596    -0.14700
C346        C  0.19884414  0.35694086  0.05340804    -0.29900
H347        H  0.16002608  0.27615507  0.04219503     0.14300
H348        H  0.21347739  0.39583144  0.04153615     0.14900
C349        C  0.98428929  0.26237354  0.11945804    -0.14700
C350        C  0.01377161  0.24264188  0.13225643    -0.29900
H351        H  0.99908001  0.30420979  0.12051148     0.14300
H352        H  0.99885681  0.20078415  0.13117775     0.14900
C353        C  0.31785843  0.42899226  0.20205910    -0.14700
C354        C  0.34882786  0.41051481  0.21400082    -0.29900
H355        H  0.33171830  0.47062653  0.20354269     0.14300
H356        H  0.33508621  0.36888525  0.21284499     0.14900
C357        C  0.54326689  0.04684130  0.38398818    -0.14700
C358        C  0.52837359  0.00586037  0.36059499    -0.29900
H359        H  0.55770057  0.08573493  0.37217962     0.14300
H360        H  0.50933670  0.96641132  0.37215883     0.14900
C361        C  0.46888935  0.00592526  0.11074092    -0.14700
C362        C  0.49562781  0.04728634  0.13360510    -0.29900
H363        H  0.44807520  0.96680584  0.12284955     0.14300
H364        H  0.52048147  0.08578262  0.12127964     0.14900
C365        C  0.68256798  0.07466413  0.04451876    -0.14700
C366        C  0.65568076  0.09735778  0.03181415    -0.29900
H367        H  0.66538636  0.03246183  0.04357801     0.14300
H368        H  0.67373546  0.13968456  0.03262007     0.14900
C369        C  0.19730028  0.88281997  0.29644721    -0.14700
C370        C  0.21536543  0.85819688  0.27466914    -0.29900
H371        H  0.18331406  0.90698561  0.28345900     0.14300
H372        H  0.23207772  0.83662570  0.28802769     0.14900
C373        C  0.13748020  0.80943109  0.02483222    -0.14700
C374        C  0.16016539  0.79048871  0.04794556    -0.29900
H375        H  0.12131315  0.83239715  0.03649090     0.14300
H376        H  0.17999463  0.77119123  0.03587563     0.14900
C377        C  0.35022097  0.96054086  0.45864249    -0.14700
C378        C  0.32184352  0.91276889  0.44343998    -0.29900
H379        H  0.33386968  0.98630018  0.45997412     0.14300
H380        H  0.33806858  0.88690825  0.44199772     0.14900
C381        C  0.80976627  0.68777015  0.47044912    -0.14700
C382        C  0.79593923  0.64666532  0.44751946    -0.29900
H383        H  0.82627925  0.72684505  0.45848166     0.14300
H384        H  0.78390527  0.60839238  0.45966608     0.14900
C385        C  0.84248582  0.64703155  0.19673798    -0.14700
C386        C  0.86336682  0.68868990  0.21988755    -0.29900
H387        H  0.82222294  0.60780221  0.20869776     0.14300
H388        H  0.87942586  0.72779872  0.20805549     0.14900
C389        C  0.67719284  0.58691177  0.30263180    -0.14700
C390        C  0.64755412  0.60730786  0.29167028    -0.29900
H391        H  0.66107411  0.54484813  0.30155704     0.14300
H392        H  0.66299807  0.64926464  0.29240320     0.14900
C393        C  0.98625397  0.74163987  0.36647914    -0.14700
C394        C  0.01387553  0.79116203  0.37892233    -0.29900
H395        H  0.00422931  0.71726816  0.36623170     0.14300
H396        H  0.99627067  0.81584562  0.37934274     0.14900
O397        O  0.81726088  0.62240938  0.88715402    -0.71200
O398        O  0.85958596  0.65046477  0.77757192    -0.72200
O399        O  0.91411048  0.67962411  0.84854591    -0.60800
O400        O  0.76428043  0.59393115  0.81658416    -0.69200
O401        O  0.75589514  0.66458225  0.81749218    -0.68800
O402        O  0.90658685  0.75071675  0.85024638    -0.60000
O403        O  0.85303104  0.72217650  0.77942446    -0.72500
O404        O  0.80990283  0.69364735  0.88888987    -0.71300
Cu405      Cu  0.83920117  0.63424327  0.83244015     1.04600
Cu406      Cu  0.83107772  0.71030142  0.83410696     1.04300
C407        C  0.80752757  0.65390392  0.90539792     0.95000
C408        C  0.86148916  0.68994344  0.76100142     0.94100
C409        C  0.93390551  0.72853565  0.85488042     0.86300
C410        C  0.73673660  0.61566823  0.81132912     0.92500
O411        O  0.19399602  0.79533683  0.85654906    -0.71200
O412        O  0.15300887  0.77651767  0.96715399    -0.72200
O413        O  0.09768114  0.74509967  0.89659873    -0.60800
O414        O  0.24820010  0.82455659  0.92718374    -0.69200
O415        O  0.24593383  0.89858411  0.92738649    -0.68800
O416        O  0.09457765  0.81862706  0.89409816    -0.60000
O417        O  0.14803919  0.84910157  0.96482095    -0.72500
O418        O  0.19163022  0.86932226  0.85583404    -0.71300
Cu419      Cu  0.17324125  0.78275771  0.91187104     1.04600
Cu420      Cu  0.17002152  0.86151644  0.91043505     1.04300
C421        C  0.19814822  0.83497160  0.83863625     0.95000
C422        C  0.14543013  0.81085317  0.98350927     0.94100
C423        C  0.07250186  0.76902988  0.88998849     0.86300
C424        C  0.27043614  0.87359279  0.93324460     0.92500
O425        O  0.57840336  0.09357227  0.51476345    -0.71200
O426        O  0.42811682  0.02368828  0.98103243    -0.72200
O427        O  0.48214584  0.04712856  0.55344325    -0.60800
O428        O  0.52403101  0.06685830  0.94099868    -0.69200
O429        O  0.52192034  0.99061468  0.94255374    -0.68800
O430        O  0.47467168  0.96866542  0.54910812    -0.60000
O431        O  0.42566867  0.94732848  0.98093934    -0.72500
O432        O  0.57484627  0.01669031  0.51370537    -0.71300
Cu433      Cu  0.50393749  0.06190740  0.99609598     1.04600
Cu434      Cu  0.50088071  0.97998936  0.99743045     1.04300
C435        C  0.59998204  0.06599243  0.52017035     0.95000
C436        C  0.40347066  0.97448823  0.97508262     0.94100
C437        C  0.47232609  0.00372773  0.56866943     0.86300
C438        C  0.52812071  0.03070933  0.92424389     0.92500
O439        O  0.08768526  0.32188004  0.64885495    -0.71200
O440        O  0.23538241  0.41269531  0.68553715    -0.72200
O441        O  0.18619512  0.38262481  0.61333308    -0.60800
O442        O  0.13779014  0.35320146  0.72141605    -0.69200
O443        O  0.14799938  0.28357821  0.72149417    -0.68800
O444        O  0.19607233  0.31279622  0.61287696    -0.60000
O445        O  0.24648163  0.34367046  0.68585075    -0.72500
O446        O  0.09895387  0.25295518  0.64939602    -0.71300
Cu447      Cu  0.16132375  0.36997183  0.66724039     1.04600
Cu448      Cu  0.17288750  0.29590344  0.66739196     1.04300
C449        C  0.07026806  0.27316884  0.64298404     0.95000
C450        C  0.26382488  0.39222159  0.69222505     0.94100
C451        C  0.19717872  0.35158989  0.59576241     0.86300
C452        C  0.13658473  0.31456194  0.73876382     0.92500
O453        O  0.75478402  0.15204399  0.56408644    -0.71200
O454        O  0.90314335  0.24376030  0.59686233    -0.72200
O455        O  0.85118654  0.20721326  0.52593326    -0.60800
O456        O  0.80607529  0.18792420  0.63511504    -0.69200
O457        O  0.81684945  0.11880496  0.63911785    -0.68800
O458        O  0.86143633  0.13778815  0.52983692    -0.60000
O459        O  0.91337654  0.17434799  0.60076082    -0.72500
O460        O  0.76334182  0.08170306  0.56782466    -0.71300
Cu461      Cu  0.82841967  0.20008179  0.58038210     1.04600
Cu462      Cu  0.83902107  0.12563119  0.58452037     1.04300
C463        C  0.73568114  0.10280715  0.56007646     0.95000
C464        C  0.93156424  0.22355492  0.60440702     0.94100
C465        C  0.86260069  0.17501439  0.51052829     0.86300
C466        C  0.80587203  0.15127466  0.65458056     0.92500
O467        O  0.52503856  0.48398970  0.69847865    -0.71200
O468        O  0.48934562  0.45742054  0.80918964    -0.72200
O469        O  0.43122831  0.42228188  0.73946609    -0.60800
O470        O  0.58148743  0.51880222  0.76796552    -0.69200
O471        O  0.56725265  0.58583141  0.76872011    -0.68800
O472        O  0.41708204  0.48937333  0.74017073    -0.60000
O473        O  0.47378107  0.52365629  0.80993291    -0.72500
O474        O  0.50955832  0.55028377  0.69903050    -0.71300
Cu475      Cu  0.50720822  0.46825676  0.75370806     1.04600
Cu476      Cu  0.49142036  0.53963142  0.75456755     1.04300
C477        C  0.52162117  0.52017978  0.68111843     0.95000
C478        C  0.47754996  0.48757708  0.82723409     0.94100
C479        C  0.40086209  0.44097713  0.73423719     0.86300
C480        C  0.59775410  0.56728373  0.77367161     0.92500
O481        O  0.07768384  0.31970861  0.93173094    -0.71200
O482        O  0.17142263  0.26401367  0.89981938    -0.72200
O483        O  0.13738300  0.28293423  0.97091043    -0.60800
O484        O  0.11279361  0.30025034  0.86095392    -0.69200
O485        O  0.18055501  0.38116791  0.86213055    -0.68800
O486        O  0.20498029  0.36388642  0.97204093    -0.60000
O487        O  0.23989587  0.34439467  0.90110324    -0.72500
O488        O  0.14602113  0.40015947  0.93269301    -0.71300
Cu489      Cu  0.12239908  0.28894670  0.91590613     1.04600
Cu490      Cu  0.19526343  0.37520094  0.91702303     1.04300
C491        C  0.09714075  0.36864270  0.93765150     0.95000
C492        C  0.22020328  0.29557164  0.89454921     0.94100
C493        C  0.17427876  0.32093032  0.98899012     0.86300
C494        C  0.14389194  0.34306170  0.84402221     0.92500
O495        O  0.33668037  0.09636389  0.81777343    -0.71200
O496        O  0.24618586  0.15777718  0.84466708    -0.72200
O497        O  0.28842159  0.14217386  0.77620584    -0.60800
O498        O  0.29286956  0.11077198  0.88649846    -0.69200
O499        O  0.36459774  0.18795982  0.89427782    -0.68800
O500        O  0.36107117  0.21898455  0.78244000    -0.60000
O501        O  0.31754144  0.23539928  0.85165329    -0.72500
O502        O  0.40768108  0.17400062  0.82609090    -0.71300
Cu503      Cu  0.28859804  0.12408986  0.83105765     1.04600
Cu504      Cu  0.36511633  0.20692804  0.83889956     1.04300
C505        C  0.38643102  0.12605144  0.81671909     0.95000
C506        C  0.26782449  0.20613978  0.85333174     0.94100
C507        C  0.32506342  0.18411696  0.76155428     0.86300
C508        C  0.32863023  0.14451002  0.90790907     0.92500
O509        O  0.92416261  0.50216001  0.51305441    -0.71200
O510        O  0.99956924  0.42937474  0.98037892    -0.72200
O511        O  0.97889991  0.46206489  0.55328057    -0.60800
O512        O  0.94306639  0.47108111  0.94336397    -0.69200
O513        O  0.01423927  0.54977096  0.94387267    -0.68800
O514        O  0.05005176  0.54075908  0.55347437    -0.60000
O515        O  0.07001254  0.50850234  0.98115971    -0.72500
O516        O  0.99446025  0.58138085  0.51376677    -0.71300
Cu517      Cu  0.95303556  0.45738997  0.99781714     1.04600
Cu518      Cu  0.02875703  0.54181775  0.99851732     1.04300
C519        C  0.94530425  0.55119147  0.51903929     0.95000
C520        C  0.04863054  0.45950941  0.97483737     0.94100
C521        C  0.01733898  0.49914371  0.57093476     0.86300
C522        C  0.97559022  0.51305824  0.92616036     0.92500
O523        O  0.70958120  0.86821735  0.72192467    -0.71200
O524        O  0.68902645  0.88645501  0.61127575    -0.72200
O525        O  0.65693363  0.91101474  0.68140916    -0.60800
O526        O  0.74171865  0.84461238  0.65204061    -0.69200
O527        O  0.67016035  0.76627846  0.65125665    -0.68800
O528        O  0.58507746  0.83286654  0.68111165    -0.60000
O529        O  0.61643473  0.80880976  0.61162974    -0.72500
O530        O  0.63715024  0.79047014  0.72173730    -0.71300
Cu531      Cu  0.70184447  0.88029205  0.66668229     1.04600
Cu532      Cu  0.62475515  0.79682220  0.66642840     1.04300
C533        C  0.67569687  0.82724599  0.73946511     0.95000
C534        C  0.64971884  0.84987338  0.59398246     0.94100
C535        C  0.60764771  0.88216761  0.68647052     0.86300
C536        C  0.71947814  0.79547742  0.64617198     0.92500
O537        O  0.84652864  0.60607935  0.56586446    -0.71200
O538        O  0.74919723  0.65683204  0.60010740    -0.72200
O539        O  0.78446545  0.63966275  0.52850126    -0.60800
O540        O  0.81205118  0.62266067  0.63754910    -0.69200
O541        O  0.87808141  0.70451851  0.63854436    -0.68800
O542        O  0.85058803  0.72150085  0.52952191    -0.60000
O543        O  0.81616051  0.73806138  0.60091500    -0.72500
O544        O  0.91328935  0.68741833  0.56689327    -0.71300
Cu545      Cu  0.79568394  0.62845565  0.58302814     1.04600
Cu546      Cu  0.86683806  0.71568292  0.58397474     1.04300
C547        C  0.89498831  0.63881762  0.56021772     0.95000
C548        C  0.76767457  0.70553286  0.60653176     0.94100
C549        C  0.81432394  0.68288127  0.51158599     0.86300
C550        C  0.84845324  0.66124029  0.65546389     0.92500
O551        O  0.52141156  0.06198283  0.69446912    -0.71200
O552        O  0.54631161  0.03961856  0.80263383    -0.72200
O553        O  0.58170971  0.02375781  0.73075669    -0.60800
O554        O  0.48571348  0.07523033  0.76642842    -0.69200
O555        O  0.41804564  0.99451020  0.76259886    -0.68800
O556        O  0.51357666  0.94322032  0.72913949    -0.60000
O557        O  0.47842110  0.95884681  0.80084873    -0.72500
O558        O  0.45486946  0.98062404  0.69092033    -0.71300
Cu559      Cu  0.53620606  0.05293864  0.74857192     1.04600
Cu560      Cu  0.46391725  0.96644192  0.74576398     1.04300
C561        C  0.48516041  0.02495138  0.67538005     0.95000
C562        C  0.51501186  0.99673617  0.81930727     0.94100
C563        C  0.56226467  0.97498758  0.72398108     0.86300
C564        C  0.43693956  0.04261556  0.77087947     0.92500
O565        O  0.37102733  0.10005212  0.60092981    -0.71200
O566        O  0.43909196  0.25228743  0.57340846    -0.72200
O567        O  0.40798541  0.19430069  0.64289455    -0.60800
O568        O  0.40174351  0.15937619  0.53132990    -0.69200
O569        O  0.32252979  0.15039187  0.52808989    -0.68800
O570        O  0.33008431  0.18816489  0.63852767    -0.60000
O571        O  0.36101748  0.24562914  0.56821250    -0.72500
O572        O  0.29288600  0.09362995  0.59818628    -0.71300
Cu573      Cu  0.40764382  0.17662799  0.58732321     1.04600
Cu574      Cu  0.32392784  0.16921130  0.58311881     1.04300
C575        C  0.32138478  0.07310014  0.60475855     0.95000
C576        C  0.41091329  0.27263836  0.56549204     0.94100
C577        C  0.36964748  0.19604840  0.65836469     0.86300
C578        C  0.36148470  0.15063548  0.51199844     0.92500
O579        O  0.45717683  0.52379527  0.55887455    -0.71200
O580        O  0.46706500  0.48485656  0.94867343    -0.72200
O581        O  0.41086048  0.42754969  0.51918310    -0.60800
O582        O  0.52048200  0.58246487  0.98446354    -0.69200
O583        O  0.59274009  0.57717415  0.98831193    -0.68800
O584        O  0.48738844  0.43029195  0.52088214    -0.60000
O585        O  0.53912441  0.47893857  0.95088817    -0.72500
O586        O  0.53402826  0.52705713  0.55859711    -0.71300
Cu587      Cu  0.47508219  0.50845192  0.00242936     1.04600
Cu588      Cu  0.55195678  0.50190540  0.00588491     1.04300
C589        C  0.49820873  0.53079298  0.57623921     0.95000
C590        C  0.50060687  0.47627949  0.93228902     0.94100
C591        C  0.43778847  0.40541958  0.52584789     0.86300
C592        C  0.56998034  0.60312598  0.98017594     0.92500
O593        O  0.14708984  0.85423413  0.71651048    -0.71200
O594        O  0.12483466  0.81632665  0.60586944    -0.72200
O595        O  0.09873539  0.75880926  0.67644465    -0.60800
O596        O  0.17240941  0.91083126  0.64673476    -0.69200
O597        O  0.24839561  0.91239900  0.64529975    -0.68800
O598        O  0.17460074  0.76016552  0.67375468    -0.60000
O599        O  0.20052016  0.81720245  0.60434511    -0.72500
O600        O  0.22197669  0.85345085  0.71529170    -0.71300
Cu601      Cu  0.13309717  0.83497887  0.66141320     1.04600
Cu602      Cu  0.21404369  0.83592355  0.65958159     1.04300
C603        C  0.18699796  0.85793471  0.73356314     0.95000
C604        C  0.15999081  0.81222305  0.58746748     0.94100
C605        C  0.12556578  0.73598700  0.68069357     0.86300
C606        C  0.22169082  0.93533776  0.64075474     0.92500
O607        O  0.94790999  0.47611211  0.69433473    -0.71200
O608        O  0.96440404  0.51962799  0.80366148    -0.72200
O609        O  0.98355432  0.57291204  0.73179756    -0.60800
O610        O  0.92998810  0.42412034  0.76592705    -0.69200
O611        O  0.01099946  0.43751609  0.76520769    -0.68800
O612        O  0.06409497  0.58507583  0.73120931    -0.60000
O613        O  0.04575622  0.53383352  0.80302178    -0.72500
O614        O  0.02924102  0.49022792  0.69351239    -0.71300
Cu615      Cu  0.95360936  0.49774796  0.74896228     1.04600
Cu616      Cu  0.04029175  0.51209737  0.74829062     1.04300
C617        C  0.98641808  0.47795689  0.67640462     0.95000
C618        C  0.00719572  0.53211649  0.82084566     0.94100
C619        C  0.03244727  0.60194304  0.72503616     0.86300
C620        C  0.96220716  0.40770387  0.77152667     0.92500
O621        O  0.90368921  0.25027412  0.81587683    -0.71200
O622        O  0.84261463  0.10028802  0.84973973    -0.72200
O623        O  0.86422313  0.15270685  0.77851176    -0.60800
O624        O  0.88207605  0.19657928  0.88753997    -0.69200
O625        O  0.80310001  0.18859899  0.88713828    -0.68800
O626        O  0.78543767  0.14514095  0.77769843    -0.60000
O627        O  0.76352448  0.09184698  0.84941910    -0.72500
O628        O  0.82416255  0.24082821  0.81614403    -0.71300
Cu629      Cu  0.87600257  0.17538786  0.83288811     1.04600
Cu630      Cu  0.79129318  0.16623626  0.83258929     1.04300
C631        C  0.87323157  0.26885526  0.81024055     0.95000
C632        C  0.79339018  0.07276916  0.85555501     0.94100
C633        C  0.82268453  0.14311032  0.76072468     0.86300
C634        C  0.84471719  0.19803057  0.90476937     0.92500
O635        O  0.62355628  0.85529012  0.97221513    -0.71200
O636        O  0.60523816  0.81440566  0.86182490    -0.72200
O637        O  0.57916086  0.76020839  0.93240764    -0.60800
O638        O  0.64875593  0.91036004  0.90133330    -0.69200
O639        O  0.72600717  0.91458802  0.90000282    -0.68800
O640        O  0.65578568  0.76312194  0.93405725    -0.60000
O641        O  0.68221583  0.81792053  0.86226988    -0.72500
O642        O  0.70179828  0.86159912  0.97123353    -0.71300
Cu643      Cu  0.61154132  0.83496147  0.91693180     1.04600
Cu644      Cu  0.69414069  0.83933922  0.91692668     1.04300
C645        C  0.66554033  0.86409209  0.98914184     0.95000
C646        C  0.64154797  0.81109110  0.84450797     0.94100
C647        C  0.60608085  0.73814914  0.93897479     0.86300
C648        C  0.69789279  0.93591545  0.89490962     0.92500
C649        C  0.72112731  0.99016303  0.88088974    -0.14700
C650        C  0.77138505  0.01875428  0.86996661    -0.29900
H651        H  0.69550150  0.00662937  0.87875091     0.14300
H652        H  0.79722186  0.00256297  0.87219510     0.14900
C653        C  0.94351758  0.35414367  0.78585657    -0.14700
C654        C  0.89350370  0.32275381  0.79631324    -0.29900
H655        H  0.97151991  0.34059234  0.78828161     0.14300
H656        H  0.86573090  0.33659880  0.79387188     0.14900
C657        C  0.05267124  0.65509410  0.70924499    -0.14700
C658        C  0.10138269  0.68178931  0.69477431    -0.29900
H659        H  0.02742040  0.67207914  0.70910124     0.14300
H660        H  0.12599819  0.66407161  0.69482916     0.14900
C661        C  0.60119364  0.65724151  0.96534872    -0.14700
C662        C  0.57785061  0.68360636  0.95286682    -0.29900
H663        H  0.64354822  0.67538099  0.96447642     0.14300
H664        H  0.53543762  0.66489464  0.95390020     0.14900
C665        C  0.29736783  0.01808829  0.61751750    -0.14700
C666        C  0.24679178  0.99031971  0.62791356    -0.29900
H667        H  0.32210732  0.00058314  0.61928759     0.14300
H668        H  0.22236270  0.00818787  0.62636659     0.14900
C669        C  0.41080862  0.35083545  0.53980198    -0.14700
C670        C  0.43717682  0.32752748  0.55233548    -0.29900
H671        H  0.38360123  0.33544308  0.04233860     0.14300
H672        H  0.47970213  0.34892789  0.55201082     0.14900
C673        C  0.63737084  0.80209863  0.80321343    -0.14700
C674        C  0.68013891  0.82421949  0.78091412    -0.29900
H675        H  0.59869316  0.78380772  0.79045246     0.14300
H676        H  0.71862007  0.84724011  0.79361366     0.14900
C677        C  0.68428013  0.87625014  0.52942063    -0.14700
C678        C  0.64302367  0.85304669  0.55293139    -0.29900
H679        H  0.72373015  0.89615139  0.54090919     0.14300
H680        H  0.60401414  0.82883213  0.54133496     0.14900
C681        C  0.75215390  0.77386799  0.63268658    -0.14700
C682        C  0.73279761  0.72422499  0.62102190    -0.29900
H683        H  0.79405789  0.80080721  0.63120701     0.14300
H684        H  0.69099490  0.69687173  0.62246620     0.14900
C685        C  0.59610780  0.95504456  0.70979874    -0.14700
C686        C  0.57570423  0.90477738  0.69930391    -0.29900
H687        H  0.63800491  0.98179989  0.70793595     0.14300
H688        H  0.53373805  0.87833165  0.70125222     0.14900
C689        C  0.96962293  0.51710255  0.88496753    -0.14700
C690        C  0.01164037  0.54161556  0.86211313    -0.29900
H691        H  0.93114862  0.49244560  0.87269112     0.14300
H692        H  0.05061479  0.56201835  0.87439919     0.14900
C693        C  0.02341766  0.49572721  0.61219266    -0.14700
C694        C  0.98187514  0.46898148  0.63509597    -0.29900
H695        H  0.06153625  0.52180145  0.62448845     0.14300
H696        H  0.94292008  0.44696139  0.62295739     0.14900
C697        C  0.91165248  0.57157536  0.53291999    -0.14700
C698        C  0.93025659  0.62077432  0.54536638    -0.29900
H699        H  0.86983732  0.54415770  0.53412596     0.14300
H700        H  0.97198543  0.64851084  0.54420887     0.14900
C701        C  0.36763038  0.15146099  0.97140935    -0.14700
C702        C  0.32532831  0.13441110  0.94912473    -0.29900
H703        H  0.40631380  0.16819204  0.95876126     0.14300
H704        H  0.28653946  0.11447601  0.96179742     0.14900
C705        C  0.32628442  0.18976030  0.71981431    -0.14700
C706        C  0.37055084  0.20499743  0.69984205    -0.29900
H707        H  0.28898629  0.17204162  0.70505790     0.14300
H708        H  0.40716022  0.21794970  0.71487785     0.14900
C709        C  0.40176888  0.05994123  0.78621777    -0.14700
C710        C  0.42052606  0.10641919  0.80327090    -0.29900
H711        H  0.35981178  0.03369847  0.78397412     0.14300
H712        H  0.46253802  0.13230488  0.80567919     0.14900
C713        C  0.06265804  0.38841191  0.95090544    -0.14700
C714        C  0.08178684  0.43867937  0.96083329    -0.29900
H715        H  0.02097914  0.36088428  0.95329410     0.14300
H716        H  0.12351730  0.46600657  0.95843405     0.14900
C717        C  0.23451654  0.22723524  0.86642622    -0.14700
C718        C  0.25427520  0.27593640  0.88027303    -0.29900
H719        H  0.19240587  0.20114853  0.86585407     0.14300
H720        H  0.29632460  0.30233940  0.88057317     0.14900
C721        C  0.47063228  0.48312783  0.86871888    -0.14700
C722        C  0.49674446  0.46670714  0.89098548    -0.29900
H723        H  0.44982690  0.50096796  0.88149876     0.14300
H724        H  0.52116750  0.45289129  0.87826021     0.14900
C725        C  0.52910813  0.52473779  0.63967735    -0.14700
C726        C  0.50241255  0.54036780  0.61747189    -0.29900
H727        H  0.55038702  0.50739487  0.62688878     0.14300
H728        H  0.47722465  0.55317526  0.63030686     0.14900
C729        C  0.84765385  0.20747355  0.94588234    -0.14700
C730        C  0.87157753  0.18958692  0.96888297    -0.29900
H731        H  0.82274450  0.22119117  0.95789485     0.14300
H732        H  0.89214073  0.17103561  0.95681613     0.14900
C733        C  0.81962485  0.13200127  0.71982373    -0.14700
C734        C  0.79587708  0.14881936  0.69571895    -0.29900
H735        H  0.84415721  0.11726559  0.70871565     0.14300
H736        H  0.77572989  0.16841263  0.70667128     0.14900
C737        C  0.12510233  0.30699766  0.77967372    -0.14700
C738        C  0.13998684  0.34817534  0.80277260    -0.29900
H739        H  0.11240150  0.26851790  0.79167955     0.14300
H740        H  0.15770339  0.38737854  0.79084665     0.14900
C741        C  0.18790369  0.31838285  0.53107981    -0.14700
C742        C  0.20773918  0.35938799  0.55476764    -0.29900
H743        H  0.16758644  0.27889463  0.54260789     0.14300
H744        H  0.22320374  0.39867142  0.54341899     0.14900
C745        C  0.98548929  0.25791493  0.61798288    -0.14700
C746        C  0.01675529  0.23919360  0.62855876    -0.29900
H747        H  0.99937850  0.29951983  0.61998078     0.14300
H748        H  0.00292606  0.19761529  0.62637473     0.14900
C749        C  0.31683944  0.42559138  0.70780820    -0.14700
C750        C  0.34718353  0.40642277  0.72005096    -0.29900
H751        H  0.33104668  0.46727985  0.70957301     0.14300
H752        H  0.33323328  0.36480230  0.71818297     0.14900
C753        C  0.53752988  0.03478408  0.88300039    -0.14700
C754        C  0.51861297  0.99214542  0.86076097    -0.29900
H755        H  0.55335511  0.07326342  0.87011167     0.14300
H756        H  0.49848580  0.95336742  0.87346042     0.14900
C757        C  0.46123045  0.99422163  0.60964861    -0.14700
C758        C  0.48093063  0.03375106  0.63460913    -0.29900
H759        H  0.44429770  0.95422846  0.61986877     0.14300
H760        H  0.50170903  0.07384272  0.62427880     0.14900
C761        C  0.68143483  0.07051383  0.54576653    -0.14700
C762        C  0.65429882  0.09351360  0.53424330    -0.29900
H763        H  0.66410983  0.02832533  0.54430592     0.14300
H764        H  0.67247252  0.13580519  0.53597629     0.14900
C765        C  0.20775781  0.83941921  0.79730687    -0.14700
C766        C  0.19056108  0.86480107  0.77504465    -0.29900
H767        H  0.22247309  0.81582982  0.78448469     0.14300
H768        H  0.17109111  0.88404123  0.78777309     0.14900
C769        C  0.13406138  0.82628532  0.52443265    -0.14700
C770        C  0.15596673  0.80479978  0.54595094    -0.29900
H771        H  0.11631514  0.84667191  0.53803169     0.14300
H772        H  0.17864997  0.78942357  0.53253182     0.14900
C773        C  0.34930708  0.94954306  0.96048715    -0.14700
C774        C  0.32455628  0.90007276  0.94780767    -0.29900
H775        H  0.33004940  0.97269245  0.95919430     0.14300
H776        H  0.34415361  0.87722996  0.94910052     0.14900
C777        C  0.80591783  0.68438533  0.96996813    -0.14700
C778        C  0.79571331  0.64488038  0.94626218    -0.29900
H779        H  0.82103085  0.72369300  0.95878349     0.14300
H780        H  0.78548032  0.60672210  0.95777909     0.14900
C781        C  0.85390956  0.65601792  0.69651208    -0.14700
C782        C  0.87038543  0.69724790  0.71979071    -0.29900
H783        H  0.83667562  0.61680018  0.70834009     0.14300
H784        H  0.88289947  0.73582199  0.70803062     0.14900
C785        C  0.68267884  0.58288907  0.79762080    -0.14700
C786        C  0.65183959  0.60212222  0.78695533    -0.29900
H787        H  0.66813024  0.54114924  0.79565803     0.14300
H788        H  0.66594044  0.64376762  0.78894255     0.14900
C789        C  0.98862248  0.76008800  0.86795011    -0.14700
C790        C  0.01768722  0.73823435  0.87711267    -0.29900
H791        H  0.00503799  0.80205154  0.87056024     0.14300
H792        H  0.00099396  0.69619064  0.87474371     0.14900
loop_ 
_geom_bond_atom_site_label_1 
_geom_bond_atom_site_label_2 
_geom_bond_distance 
_geom_bond_site_symmetry_2 
_ccdc_geom_bond_type 
O1           Cu9   2.005       .  S
O1           C11   1.277       .  A
O2           Cu9   2.008       .  S
O2           C12   1.278       .  A
O3           Cu9   1.997       .  S
O3           C13   1.275       .  A
O4           Cu9   1.979       .  S
O4           C14   1.273       .  A
O5          Cu10   2.034       .  S
O5           C14   1.281       .  A
O6          Cu10   2.027       .  S
O6           C13   1.281       .  A
O7          Cu10   2.004       .  S
O7           C12   1.276       .  A
O8          Cu10   2.001       .  S
O8           C11   1.277       .  A
Cu9         Cu10   2.376       .  S
C11         C382   1.469       .  S
C12         C386   1.470       .  S
C13         C393   1.475       .  S
C14         C389   1.469       .  S
O15         Cu23   2.016       .  S
O15          C25   1.280       .  A
O16         Cu23   2.022       .  S
O16          C26   1.279       .  A
O17         Cu23   2.009       .  S
O17          C27   1.279       .  A
O18         Cu23   2.001       .  S
O18          C28   1.275       .  A
O19         Cu24   2.031       .  S
O19          C28   1.282       .  A
O20         Cu24   2.016       .  S
O20          C27   1.278       .  A
O21         Cu24   1.999       .  S
O21          C26   1.275       .  A
O22         Cu24   2.006       .  S
O22          C25   1.275       .  A
Cu23        Cu24   2.374       .  S
C25         C369   1.475       .  S
C26         C769   1.472       .  S
C27         C394   1.480       .  S
C28         C378   1.480       .  S
O29        Cu433   1.991   1_554  S
O29          C39   1.275       .  A
O30         Cu37   1.996       .  S
O30          C40   1.274   1_545  A
O31        Cu433   2.015   1_554  S
O31          C41   1.279       .  A
O32         Cu37   2.019       .  S
O32          C42   1.279       .  A
O33         Cu38   1.999       .  S
O33          C42   1.276   1_565  A
O34        Cu434   2.002   1_554  S
O34          C41   1.276   1_565  A
O35         Cu38   2.034       .  S
O35          C40   1.282       .  A
O36        Cu434   2.029   1_544  S
O36          C39   1.280       .  A
Cu37        O425   1.983       .  S
Cu37        O427   2.021       .  S
Cu37        Cu38   2.374   1_545  S
Cu38        O430   2.000       .  S
Cu38        O432   2.045   1_565  S
C39         C366   1.472       .  S
C40         C377   1.478       .  S
C41         C361   1.471       .  S
C42         C357   1.474       .  S
O43         Cu51   2.013       .  S
O43          C53   1.279       .  A
O44         Cu51   1.999       .  S
O44          C54   1.276       .  A
O45         Cu51   2.005       .  S
O45          C55   1.276       .  A
O46         Cu51   2.011       .  S
O46          C56   1.278       .  A
O47         Cu52   2.009       .  S
O47          C56   1.277       .  A
O48         Cu52   2.016       .  S
O48          C55   1.279       .  A
O49         Cu52   2.019       .  S
O49          C54   1.279       .  A
O50         Cu52   2.001       .  S
O50          C53   1.276       .  A
Cu51        Cu52   2.376       .  S
C53         C350   1.473       .  S
C54         C353   1.474       .  S
C55         C346   1.473       .  S
C56         C341   1.472       .  S
O57         Cu65   1.994       .  S
O57          C67   1.278       .  A
O58         Cu65   2.006       .  S
O58          C68   1.276       .  A
O59         Cu65   2.004       .  S
O59          C69   1.277       .  A
O60         Cu65   2.008       .  S
O60          C70   1.277       .  A
O61         Cu66   2.003       .  S
O61          C70   1.277       .  A
O62         Cu66   2.006       .  S
O62          C69   1.277       .  A
O63         Cu66   2.007       .  S
O63          C68   1.279       .  A
O64         Cu66   2.025       .  S
O64          C67   1.278       .  A
Cu65        Cu66   2.375       .  S
C67         C365   1.479       .  S
C68         C349   1.474       .  S
C69         C730   1.470   1_554  S
C70         C338   1.470       .  S
O71         Cu79   2.003       .  S
O71          C81   1.276       .  A
O72         Cu79   2.003       .  S
O72          C82   1.277       .  A
O73         Cu79   2.012       .  S
O73          C83   1.277       .  A
O74         Cu79   1.997       .  S
O74          C84   1.279       .  A
O75         Cu80   2.017       .  S
O75          C84   1.277       .  A
O76         Cu80   2.007       .  S
O76          C83   1.279       .  A
O77         Cu80   2.019       .  S
O77          C82   1.278       .  A
O78         Cu80   2.015       .  S
O78          C81   1.280       .  A
Cu79        Cu80   2.374       .  S
C81         C329   1.474       .  S
C82         C325   1.477       .  S
C83         C354   1.477       .  S
C84         C390   1.478       .  S
O85         Cu93   2.016       .  S
O85          C95   1.278       .  A
O86         Cu93   1.999       .  S
O86          C96   1.278       .  A
O87         Cu93   2.006       .  S
O87          C97   1.277       .  A
O88         Cu93   2.005       .  S
O88          C98   1.277       .  A
O89         Cu94   2.012       .  S
O89          C98   1.278       .  A
O90         Cu94   2.009       .  S
O90          C97   1.278       .  A
O91         Cu94   2.022       .  S
O91          C96   1.278       .  A
O92         Cu94   2.012       .  S
O92          C95   1.279       .  A
Cu93        Cu94   2.375       .  S
C95         C317   1.479       .  S
C96         C322   1.479       .  S
C97         C741   1.471       .  S
C98         C342   1.473       .  S
O99        Cu107   2.004       .  S
O99         C109   1.276       .  A
O100       Cu107   1.994       .  S
O100        C110   1.275       .  A
O101       Cu107   2.017       .  S
O101        C111   1.278       .  A
O102       Cu107   2.020       .  S
O102        C112   1.278       .  A
O103       Cu108   2.013       .  S
O103        C112   1.278       .  A
O104       Cu108   2.010       .  S
O104        C111   1.278       .  A
O105       Cu108   2.025       .  S
O105        C110   1.280       .  A
O106       Cu108   2.001       .  S
O106        C109   1.278       .  A
Cu107      Cu108   2.375       .  S
C109        C314   1.471       .  S
C110        C321   1.473       .  S
C111        C309   1.476       .  S
C112        C306   1.478       .  S
O113       Cu517   2.007   1_554  S
O113        C123   1.277       .  A
O114       Cu121   2.018   1_455  S
O114        C124   1.279       .  A
O115       Cu517   2.015   1_554  S
O115        C125   1.279   1_655  A
O116       Cu121   2.007       .  S
O116        C126   1.277       .  A
O117       Cu122   2.014       .  S
O117        C126   1.278   1_455  A
O118       Cu518   2.004   1_554  S
O118        C125   1.276       .  A
O119       Cu122   2.010       .  S
O119        C124   1.277       .  A
O120       Cu518   2.023   1_654  S
O120        C123   1.280       .  A
Cu121       O509   2.003       .  S
Cu121       O511   2.013       .  S
Cu121      Cu122   2.375   1_655  S
Cu122       O514   2.007       .  S
Cu122       O516   2.029   1_455  S
C123        C301   1.478       .  S
C124        C318   1.478       .  S
C125        C297   1.471       .  S
C126        C293   1.471       .  S
O127       Cu135   2.007       .  S
O127        C137   1.277       .  A
O128       Cu135   2.012       .  S
O128        C138   1.279       .  A
O129       Cu135   2.006       .  S
O129        C139   1.278       .  A
O130       Cu135   1.997       .  S
O130        C140   1.275       .  A
O131       Cu136   2.031       .  S
O131        C140   1.281       .  A
O132       Cu136   2.014       .  S
O132        C139   1.278       .  A
O133       Cu136   2.003       .  S
O133        C138   1.276       .  A
O134       Cu136   2.008       .  S
O134        C137   1.278       .  A
Cu135      Cu136   2.375       .  S
C137        C278   1.471       .  S
C138        C282   1.472       .  S
C139        C290   1.476       .  S
C140        C285   1.477       .  S
O141       Cu149   2.007       .  S
O141        C151   1.278       .  A
O142       Cu149   2.022       .  S
O142        C152   1.278       .  A
O143       Cu149   2.010       .  S
O143        C153   1.278       .  A
O144       Cu149   2.011       .  S
O144        C154   1.277       .  A
O145       Cu150   2.001       .  S
O145        C154   1.277       .  A
O146       Cu150   2.002       .  S
O146        C153   1.276       .  A
O147       Cu150   2.009       .  S
O147        C152   1.279       .  A
O148       Cu150   2.021       .  S
O148        C151   1.279       .  A
Cu149      Cu150   2.375       .  S
C151        C302   1.480       .  S
C152        C286   1.482       .  S
C153        C777   1.470   1_554  S
C154        C385   1.471       .  S
O155       Cu163   2.011       .  S
O155        C165   1.277       .  A
O156       Cu163   2.012       .  S
O156        C166   1.278       .  A
O157       Cu163   2.012       .  S
O157        C167   1.278   1_545  A
O158       Cu163   1.993       .  S
O158        C168   1.275       .  A
O159       Cu164   2.011   1_545  S
O159        C168   1.279       .  A
O160       Cu164   2.006       .  S
O160        C167   1.278       .  A
O161       Cu164   2.004       .  S
O161        C166   1.276   1_565  A
O162       Cu164   2.009       .  S
O162        C165   1.278   1_565  A
Cu163      Cu164   2.376   1_545  S
C165        C362   1.474       .  S
C166        C358   1.471       .  S
C167        C289   1.475       .  S
C168        C313   1.469       .  S
O169       Cu177   2.035       .  S
O169        C179   1.280       .  A
O170       Cu177   2.015       .  S
O170        C180   1.278       .  A
O171       Cu177   2.017       .  S
O171        C181   1.279       .  A
O172       Cu177   2.022       .  S
O172        C182   1.278       .  A
O173       Cu178   2.004       .  S
O173        C182   1.278       .  A
O174       Cu178   2.012       .  S
O174        C181   1.278       .  A
O175       Cu178   2.016       .  S
O175        C180   1.279       .  A
O176       Cu178   2.004       .  S
O176        C179   1.277       .  A
Cu177      Cu178   2.374       .  S
C179        C269   1.480       .  S
C180        C274   1.480       .  S
C181        C310   1.476       .  S
C182        C701   1.477   1_554  S
O183       Cu587   1.994       .  S
O183        C193   1.274       .  A
O184       Cu191   2.018       .  S
O184        C194   1.279       .  A
O185       Cu587   2.020       .  S
O185        C195   1.279       .  A
O186       Cu191   1.995       .  S
O186        C196   1.275       .  A
O187       Cu192   2.025       .  S
O187        C196   1.280       .  A
O188       Cu588   2.013       .  S
O188        C195   1.278       .  A
O189       Cu192   2.002       .  S
O189        C194   1.276       .  A
O190       Cu588   2.020       .  S
O190        C193   1.280       .  A
Cu191       O579   2.013       .  S
Cu191       O581   2.013       .  S
Cu191      Cu192   2.375       .  S
Cu192       O584   2.014       .  S
Cu192       O586   2.003       .  S
C193        C330   1.471       .  S
C194        C326   1.472       .  S
C195        C273   1.480       .  S
C196        C265   1.473       .  S
O197       Cu205   2.027       .  S
O197        C207   1.281       .  A
O198       Cu205   2.020       .  S
O198        C208   1.280       .  A
O199       Cu205   2.003       .  S
O199        C209   1.275       .  A
O200       Cu205   2.002       .  S
O200        C210   1.278       .  A
O201       Cu206   2.035       .  S
O201        C210   1.280       .  A
O202       Cu206   2.013       .  S
O202        C209   1.280       .  A
O203       Cu206   1.993       .  S
O203        C208   1.274       .  A
O204       Cu206   1.991       .  S
O204        C207   1.274       .  A
Cu205      Cu206   2.374       .  S
C207        C370   1.473       .  S
C208        C374   1.471       .  S
C209        C262   1.475       .  S
C210        C270   1.486       .  S
O211       Cu219   2.002       .  S
O211        C221   1.276       .  A
O212       Cu219   2.008       .  S
O212        C222   1.278   1_655  A
O213       Cu219   2.027   1_455  S
O213        C223   1.281       .  A
O214       Cu219   2.014       .  S
O214        C224   1.277       .  A
O215       Cu220   1.998   1_655  S
O215        C224   1.278       .  A
O216       Cu220   1.986       .  S
O216        C223   1.273       .  A
O217       Cu220   2.014       .  S
O217        C222   1.278       .  A
O218       Cu220   2.018       .  S
O218        C221   1.279   1_455  A
Cu219      Cu220   2.376   1_655  S
C221        C298   1.471       .  S
C222        C294   1.474       .  S
C223        C261   1.472       .  S
C224        C257   1.476       .  S
O225       Cu233   1.991       .  S
O225        C235   1.275       .  A
O226       Cu233   1.979       .  S
O226        C236   1.273       .  A
O227       Cu233   2.014       .  S
O227        C237   1.278       .  A
O228       Cu233   2.017       .  S
O228        C238   1.279       .  A
O229       Cu234   1.997       .  S
O229        C238   1.275       .  A
O230       Cu234   2.000       .  S
O230        C237   1.277       .  A
O231       Cu234   2.034       .  S
O231        C236   1.282       .  A
O232       Cu234   2.022       .  S
O232        C235   1.280       .  A
Cu233      Cu234   2.376       .  S
C235        C258   1.470       .  S
C236        C254   1.470       .  S
C237        C337   1.472       .  S
C238        C333   1.469       .  S
O239       Cu247   2.003       .  S
O239        C249   1.278       .  A
O240       Cu247   2.008       .  S
O240        C250   1.277       .  A
O241       Cu247   2.003       .  S
O241        C251   1.278       .  A
O242       Cu247   2.016       .  S
O242        C252   1.277       .  A
O243       Cu248   2.001       .  S
O243        C252   1.279       .  A
O244       Cu248   2.018       .  S
O244        C251   1.278       .  A
O245       Cu248   2.005       .  S
O245        C250   1.278       .  A
O246       Cu248   2.006       .  S
O246        C249   1.276       .  A
Cu247      Cu248   2.375       .  S
C249        C677   1.470       .  S
C250        C277   1.471       .  S
C251        C266   1.479       .  S
C252        C253   1.478       .  S
C253        C254   1.342   1_565  D
C253        H255   1.086   1_565  S
C254        H256   1.087   1_545  S
C257        C258   1.343       .  D
C257        H259   1.086       .  S
C258        H260   1.087       .  S
C261        C262   1.340       .  D
C261        H263   1.087       .  S
C262        H264   1.087       .  S
C265        C266   1.344       .  D
C265        H267   1.087       .  S
C266        H268   1.086       .  S
C269        C270   1.348   1_545  D
C269        H271   1.087   1_545  S
C270        H272   1.086       .  S
C273        C274   1.347       .  D
C273        H671   1.086       .  S
C274        H276   1.087       .  S
H275        C669   1.087       .  S
C277        C278   1.344       .  D
C277        H279   1.087       .  S
C278        H280   1.087       .  S
C281        C645   1.470   1_554  S
C281        C282   1.341       .  D
C281        H283   1.087       .  S
C282        H284   1.087       .  S
C285        C286   1.345       .  D
C285        H287   1.087       .  S
C286        H288   1.087       .  S
C289        C290   1.345       .  D
C289        H291   1.087       .  S
C290        H292   1.087       .  S
C293        C294   1.344   1_655  D
C293        H295   1.087       .  S
C294        H296   1.087       .  S
C297        C298   1.341   1_455  D
C297        H299   1.087       .  S
C298        H300   1.087       .  S
C301        C302   1.346       .  D
C301        H303   1.087       .  S
C302        H304   1.087       .  S
C305        C578   1.479       .  S
C305        C306   1.345       .  D
C305        H307   1.086       .  S
C306        H308   1.086       .  S
C309        C310   1.347       .  D
C309        H311   1.087       .  S
C310        H312   1.087       .  S
C313        C314   1.342       .  D
C313        H315   1.086       .  S
C314        H316   1.086       .  S
C317        C318   1.346       .  D
C317        H319   1.087       .  S
C318        H320   1.087       .  S
C321        C322   1.344       .  D
C321        H323   1.087       .  S
C322        H324   1.087       .  S
C325        C326   1.345       .  D
C325        H327   1.087       .  S
C326        H328   1.087       .  S
C329        C330   1.341       .  D
C329        H331   1.087       .  S
C330        H332   1.087       .  S
C333        C334   1.342       .  D
C333        H335   1.087       .  S
C334        C465   1.473       .  S
C334        H336   1.087       .  S
C337        C338   1.345       .  D
C337        H339   1.087       .  S
C338        H340   1.087       .  S
C341        C342   1.344       .  D
C341        H343   1.087       .  S
C342        H344   1.087       .  S
C345        C493   1.475   1_554  S
C345        C346   1.344       .  D
C345        H347   1.087       .  S
C346        H348   1.087       .  S
C349        C350   1.343   1_655  D
C349        H351   1.086       .  S
C350        H352   1.086   1_455  S
C353        C354   1.344       .  D
C353        H355   1.086       .  S
C354        H356   1.086       .  S
C357        C358   1.345       .  D
C357        H359   1.087       .  S
C358        H360   1.087   1_545  S
C361        C362   1.343       .  D
C361        H363   1.087   1_545  S
C362        H364   1.087       .  S
C365        C366   1.345       .  D
C365        H367   1.086       .  S
C366        H368   1.087       .  S
C369        C370   1.338       .  D
C369        H371   1.087       .  S
C370        H372   1.087       .  S
C373        C422   1.471   1_554  S
C373        C374   1.340       .  D
C373        H375   1.086       .  S
C374        H376   1.087       .  S
C377        C378   1.342       .  D
C377        H379   1.086       .  S
C378        H380   1.086       .  S
C381        C549   1.468       .  S
C381        C382   1.342       .  D
C381        H383   1.087       .  S
C382        H384   1.087       .  S
C385        C386   1.343       .  D
C385        H387   1.087       .  S
C386        H388   1.087       .  S
C389        C390   1.342       .  D
C389        H391   1.086       .  S
C390        H392   1.086       .  S
C393        C394   1.344   1_655  D
C393        H395   1.087   1_655  S
C394        H396   1.086   1_455  S
O397       Cu405   2.005       .  S
O397        C407   1.277       .  A
O398       Cu405   2.007       .  S
O398        C408   1.278       .  A
O399       Cu405   2.012       .  S
O399        C409   1.279       .  A
O400       Cu405   1.997       .  S
O400        C410   1.276       .  A
O401       Cu406   2.024       .  S
O401        C410   1.280       .  A
O402       Cu406   2.014       .  S
O402        C409   1.278       .  A
O403       Cu406   2.004       .  S
O403        C408   1.276       .  A
O404       Cu406   2.010       .  S
O404        C407   1.278       .  A
Cu405      Cu406   2.375       .  S
C407        C778   1.472       .  S
C408        C782   1.470       .  S
C409        C789   1.478       .  S
C410        C785   1.474       .  S
O411       Cu419   2.018       .  S
O411        C421   1.279       .  A
O412       Cu419   2.016       .  S
O412        C422   1.280       .  A
O413       Cu419   2.005       .  S
O413        C423   1.276       .  A
O414       Cu419   1.995       .  S
O414        C424   1.275       .  A
O415       Cu420   2.031       .  S
O415        C424   1.281       .  A
O416       Cu420   2.019       .  S
O416        C423   1.280       .  A
O417       Cu420   1.995       .  S
O417        C422   1.274       .  A
O418       Cu420   2.001       .  S
O418        C421   1.277       .  A
Cu419      Cu420   2.375       .  S
C421        C765   1.475       .  S
C423        C790   1.477       .  S
C424        C774   1.476       .  S
O425        C435   1.274       .  A
O426       Cu433   2.010       .  S
O426        C436   1.276   1_545  A
O427        C437   1.280       .  A
O428       Cu433   2.011       .  S
O428        C438   1.278       .  A
O429       Cu434   2.004       .  S
O429        C438   1.277   1_565  A
O430        C437   1.275   1_565  A
O431       Cu434   2.014       .  S
O431        C436   1.280       .  A
O432        C435   1.282       .  A
Cu433      Cu434   2.375   1_545  S
C435        C762   1.475       .  S
C436        C773   1.479       .  S
C437        C757   1.474   1_545  S
C438        C753   1.471       .  S
O439       Cu447   2.019       .  S
O439        C449   1.280       .  A
O440       Cu447   2.008       .  S
O440        C450   1.277       .  A
O441       Cu447   2.000       .  S
O441        C451   1.275       .  A
O442       Cu447   2.004       .  S
O442        C452   1.277       .  A
O443       Cu448   2.007       .  S
O443        C452   1.277       .  A
O444       Cu448   2.013       .  S
O444        C451   1.279       .  A
O445       Cu448   2.018       .  S
O445        C450   1.279       .  A
O446       Cu448   2.002       .  S
O446        C449   1.276       .  A
Cu447      Cu448   2.376       .  S
C449        C746   1.476       .  S
C450        C749   1.477       .  S
C451        C742   1.469       .  S
C452        C737   1.470       .  S
O453       Cu461   1.997       .  S
O453        C463   1.278       .  A
O454       Cu461   2.006       .  S
O454        C464   1.276       .  A
O455       Cu461   2.006       .  S
O455        C465   1.278       .  A
O456       Cu461   2.009       .  S
O456        C466   1.277       .  A
O457       Cu462   2.007       .  S
O457        C466   1.278       .  A
O458       Cu462   2.008       .  S
O458        C465   1.277       .  A
O459       Cu462   2.015       .  S
O459        C464   1.280       .  A
O460       Cu462   2.031       .  S
O460        C463   1.279       .  A
Cu461      Cu462   2.374       .  S
C463        C761   1.484       .  S
C464        C745   1.476       .  S
C466        C734   1.472       .  S
O467       Cu475   2.006       .  S
O467        C477   1.277       .  A
O468       Cu475   2.006       .  S
O468        C478   1.277       .  A
O469       Cu475   2.021       .  S
O469        C479   1.279       .  A
O470       Cu475   2.005       .  S
O470        C480   1.279       .  A
O471       Cu476   2.017       .  S
O471        C480   1.278       .  A
O472       Cu476   2.005       .  S
O472        C479   1.278       .  A
O473       Cu476   2.010       .  S
O473        C478   1.278       .  A
O474       Cu476   2.009       .  S
O474        C477   1.278       .  A
Cu475      Cu476   2.375       .  S
C477        C725   1.471       .  S
C478        C721   1.471       .  S
C479        C750   1.479       .  S
C480        C786   1.478       .  S
O481       Cu489   2.019       .  S
O481        C491   1.278       .  A
O482       Cu489   2.005       .  S
O482        C492   1.278       .  A
O483       Cu489   2.013       .  S
O483        C493   1.278       .  A
O484       Cu489   2.006       .  S
O484        C494   1.278       .  A
O485       Cu490   2.007       .  S
O485        C494   1.277       .  A
O486       Cu490   2.009       .  S
O486        C493   1.278       .  A
O487       Cu490   2.019       .  S
O487        C492   1.278       .  A
O488       Cu490   2.007       .  S
O488        C491   1.278       .  A
Cu489      Cu490   2.375       .  S
C491        C713   1.479       .  S
C492        C718   1.477       .  S
C494        C738   1.470       .  S
O495       Cu503   2.016       .  S
O495        C505   1.280       .  A
O496       Cu503   2.008       .  S
O496        C506   1.277       .  A
O497       Cu503   2.003       .  S
O497        C507   1.276       .  A
O498       Cu503   2.006       .  S
O498        C508   1.276       .  A
O499       Cu504   2.025       .  S
O499        C508   1.280       .  A
O500       Cu504   2.032       .  S
O500        C507   1.281       .  A
O501       Cu504   2.015       .  S
O501        C506   1.279       .  A
O502       Cu504   1.987       .  S
O502        C505   1.274       .  A
Cu503      Cu504   2.375       .  S
C505        C710   1.468       .  S
C506        C717   1.476       .  S
C507        C705   1.477       .  S
C508        C702   1.474       .  S
O509        C519   1.276       .  A
O510       Cu517   2.021       .  S
O510        C520   1.280   1_655  A
O511        C521   1.278   1_655  A
O512       Cu517   2.010       .  S
O512        C522   1.277       .  A
O513       Cu518   2.009       .  S
O513        C522   1.278   1_455  A
O514        C521   1.277       .  A
O515       Cu518   2.005       .  S
O515        C520   1.277       .  A
O516        C519   1.281       .  A
Cu517      Cu518   2.375   1_655  S
C519        C697   1.478       .  S
C520        C714   1.477       .  S
C521        C693   1.473       .  S
C522        C689   1.472       .  S
O523       Cu531   2.010       .  S
O523        C533   1.277       .  A
O524       Cu531   2.012       .  S
O524        C534   1.278       .  A
O525       Cu531   2.013       .  S
O525        C535   1.278       .  A
O526       Cu531   2.000       .  S
O526        C536   1.276       .  A
O527       Cu532   2.026       .  S
O527        C536   1.280       .  A
O528       Cu532   2.004       .  S
O528        C535   1.277       .  A
O529       Cu532   1.997       .  S
O529        C534   1.275       .  A
O530       Cu532   2.007       .  S
O530        C533   1.277       .  A
Cu531      Cu532   2.376       .  S
C533        C674   1.471       .  S
C534        C678   1.468       .  S
C535        C686   1.472       .  S
C536        C681   1.476       .  S
O537       Cu545   2.011       .  S
O537        C547   1.279       .  A
O538       Cu545   2.024       .  S
O538        C548   1.279       .  A
O539       Cu545   2.002       .  S
O539        C549   1.277       .  A
O540       Cu545   2.007       .  S
O540        C550   1.277       .  A
O541       Cu546   2.004       .  S
O541        C550   1.277       .  A
O542       Cu546   2.004       .  S
O542        C549   1.276       .  A
O543       Cu546   2.004       .  S
O543        C548   1.278       .  A
O544       Cu546   2.020       .  S
O544        C547   1.278       .  A
Cu545      Cu546   2.375       .  S
C547        C698   1.482       .  S
C548        C682   1.481       .  S
C550        C781   1.470       .  S
O551       Cu559   2.001       .  S
O551        C561   1.275       .  A
O552       Cu559   1.995       .  S
O552        C562   1.276   1_545  A
O553       Cu559   2.024       .  S
O553        C563   1.279   1_545  A
O554       Cu559   2.007       .  S
O554        C564   1.280       .  A
O555       Cu560   1.998       .  S
O555        C564   1.274   1_565  A
O556       Cu560   1.991       .  S
O556        C563   1.276       .  A
O557       Cu560   2.022       .  S
O557        C562   1.279       .  A
O558       Cu560   2.020       .  S
O558        C561   1.280   1_565  A
Cu559      Cu560   2.375   1_545  S
C561        C758   1.474       .  S
C562        C754   1.474       .  S
C563        C685   1.477       .  S
C564        C709   1.470       .  S
O565       Cu573   2.016       .  S
O565        C575   1.277       .  A
O566       Cu573   2.004       .  S
O566        C576   1.276       .  A
O567       Cu573   2.025       .  S
O567        C577   1.279       .  A
O568       Cu573   2.023       .  S
O568        C578   1.279       .  A
O569       Cu574   2.011       .  S
O569        C578   1.278       .  A
O570       Cu574   2.014       .  S
O570        C577   1.278       .  A
O571       Cu574   2.023       .  S
O571        C576   1.280       .  A
O572       Cu574   2.013       .  S
O572        C575   1.279       .  A
Cu573      Cu574   2.373       .  S
C575        C665   1.479       .  S
C576        C670   1.477       .  S
C577        C706   1.482       .  S
O579        C589   1.278       .  A
O580       Cu587   1.991   1_556  S
O580        C590   1.276       .  A
O581        C591   1.277       .  A
O582       Cu587   2.009   1_556  S
O582        C592   1.279       .  A
O583       Cu588   2.023   1_556  S
O583        C592   1.278       .  A
O584        C591   1.279       .  A
O585       Cu588   2.025   1_556  S
O585        C590   1.280       .  A
O586        C589   1.277       .  A
Cu587      Cu588   2.374       .  S
C589        C726   1.473       .  S
C590        C722   1.475       .  S
C591        C669   1.479       .  S
C592        C661   1.483       .  S
O593       Cu601   2.007       .  S
O593        C603   1.277       .  A
O594       Cu601   2.014       .  S
O594        C604   1.279       .  A
O595       Cu601   2.020       .  S
O595        C605   1.279       .  A
O596       Cu601   2.007       .  S
O596        C606   1.277       .  A
O597       Cu602   2.021       .  S
O597        C606   1.280       .  A
O598       Cu602   2.000       .  S
O598        C605   1.277       .  A
O599       Cu602   2.008       .  S
O599        C604   1.276       .  A
O600       Cu602   2.013       .  S
O600        C603   1.278       .  A
Cu601      Cu602   2.375       .  S
C603        C766   1.471       .  S
C604        C770   1.474       .  S
C605        C658   1.473       .  S
C606        C666   1.478       .  S
O607       Cu615   2.008       .  S
O607        C617   1.277       .  A
O608       Cu615   2.007       .  S
O608        C618   1.277   1_655  A
O609       Cu615   2.026       .  S
O609        C619   1.279   1_655  A
O610       Cu615   2.012       .  S
O610        C620   1.280       .  A
O611       Cu616   2.011       .  S
O611        C620   1.277   1_455  A
O612       Cu616   1.995       .  S
O612        C619   1.277       .  A
O613       Cu616   2.013       .  S
O613        C618   1.278       .  A
O614       Cu616   2.009       .  S
O614        C617   1.278   1_455  A
Cu615      Cu616   2.374   1_655  S
C617        C694   1.473       .  S
C618        C690   1.474       .  S
C619        C657   1.479       .  S
C620        C653   1.478       .  S
O621       Cu629   2.026       .  S
O621        C631   1.281       .  A
O622       Cu629   2.012       .  S
O622        C632   1.277       .  A
O623       Cu629   2.002       .  S
O623        C633   1.276       .  A
O624       Cu629   2.005       .  S
O624        C634   1.277       .  A
O625       Cu630   2.005       .  S
O625        C634   1.277       .  A
O626       Cu630   2.012       .  S
O626        C633   1.278       .  A
O627       Cu630   2.010       .  S
O627        C632   1.279       .  A
O628       Cu630   1.996       .  S
O628        C631   1.275       .  A
Cu629      Cu630   2.376       .  S
C631        C654   1.475       .  S
C632        C650   1.478       .  S
C633        C733   1.470       .  S
C634        C729   1.469       .  S
O635       Cu643   2.017       .  S
O635        C645   1.279       .  A
O636       Cu643   2.015       .  S
O636        C646   1.278       .  A
O637       Cu643   1.992       .  S
O637        C647   1.275       .  A
O638       Cu643   2.004       .  S
O638        C648   1.276       .  A
O639       Cu644   2.020       .  S
O639        C648   1.280       .  A
O640       Cu644   2.039       .  S
O640        C647   1.282       .  A
O641       Cu644   2.002       .  S
O641        C646   1.277       .  A
O642       Cu644   1.999       .  S
O642        C645   1.275       .  A
Cu643      Cu644   2.375       .  S
C646        C673   1.472       .  S
C647        C662   1.477       .  S
C648        C649   1.476       .  S
C649        C650   1.344   1_565  D
C649        H651   1.087   1_565  S
C650        H652   1.086       .  S
C653        C654   1.343       .  D
C653        H655   1.086       .  S
C654        H656   1.086       .  S
C657        C658   1.346       .  D
C657        H659   1.086       .  S
C658        H660   1.087       .  S
C661        C662   1.344       .  D
C661        H663   1.087       .  S
C662        H664   1.087       .  S
C665        C666   1.345   1_545  D
C665        H667   1.087       .  S
C666        H668   1.087   1_565  S
C669        C670   1.344       .  D
C670        H672   1.087       .  S
C673        C674   1.345       .  D
C673        H675   1.087       .  S
C674        H676   1.087       .  S
C677        C678   1.342       .  D
C677        H679   1.087       .  S
C678        H680   1.087       .  S
C681        C682   1.345       .  D
C681        H683   1.087       .  S
C682        H684   1.087       .  S
C685        C686   1.346       .  D
C685        H687   1.086       .  S
C686        H688   1.087       .  S
C689        C690   1.345   1_655  D
C689        H691   1.087       .  S
C690        H692   1.087       .  S
C693        C694   1.344   1_455  D
C693        H695   1.087       .  S
C694        H696   1.087       .  S
C697        C698   1.345       .  D
C697        H699   1.087       .  S
C698        H700   1.087       .  S
C701        C702   1.342       .  D
C701        H703   1.086       .  S
C702        H704   1.087       .  S
C705        C706   1.347       .  D
C705        H707   1.087       .  S
C706        H708   1.087       .  S
C709        C710   1.340       .  D
C709        H711   1.087       .  S
C710        H712   1.087       .  S
C713        C714   1.345       .  D
C713        H715   1.087       .  S
C714        H716   1.087       .  S
C717        C718   1.346       .  D
C717        H719   1.087       .  S
C718        H720   1.087       .  S
C721        C722   1.347       .  D
C721        H723   1.087       .  S
C722        H724   1.087       .  S
C725        C726   1.344       .  D
C725        H727   1.087       .  S
C726        H728   1.087       .  S
C729        C730   1.343       .  D
C729        H731   1.087       .  S
C730        H732   1.087       .  S
C733        C734   1.343       .  D
C733        H735   1.087       .  S
C734        H736   1.087       .  S
C737        C738   1.343       .  D
C737        H739   1.087       .  S
C738        H740   1.087       .  S
C741        C742   1.342       .  D
C741        H743   1.088       .  S
C742        H744   1.087       .  S
C745        C746   1.343   1_655  D
C745        H747   1.086       .  S
C746        H748   1.086       .  S
C749        C750   1.346       .  D
C749        H751   1.086       .  S
C750        H752   1.086       .  S
C753        C754   1.346   1_545  D
C753        H755   1.087       .  S
C754        H756   1.087       .  S
C757        C758   1.342   1_565  D
C757        H759   1.087       .  S
C758        H760   1.087       .  S
C761        C762   1.345       .  D
C761        H763   1.086       .  S
C762        H764   1.087       .  S
C765        C766   1.345       .  D
C765        H767   1.087       .  S
C766        H768   1.087       .  S
C769        C770   1.342       .  D
C769        H771   1.087       .  S
C770        H772   1.087       .  S
C773        C774   1.343       .  D
C773        H775   1.086       .  S
C774        H776   1.087       .  S
C777        C778   1.342       .  D
C777        H779   1.087       .  S
C778        H780   1.088       .  S
C781        C782   1.343       .  D
C781        H783   1.087       .  S
C782        H784   1.087       .  S
C785        C786   1.344       .  D
C785        H787   1.086       .  S
C786        H788   1.086       .  S
C789        C790   1.344   1_655  D
C789        H791   1.086   1_655  S
C790        H792   1.086       .  S
