geometry optimzed in LAMMPS
_audit_creation_date              2020-12-01 
_audit_creation_method            'lammps2cif' 
_symmetry_space_group_name_H-M    'P1' 
_symmetry_Int_Tables_number       1 
_symmetry_cell_setting            triclinic 
loop_ 
_symmetry_equiv_pos_as_xyz 
  x,y,z 
_cell_length_a                    46.43891661 
_cell_length_b                    46.820071066902116 
_cell_length_c                    47.551008749272945 
_cell_angle_alpha                 90.02072808638779 
_cell_angle_beta                  89.88807387135328 
_cell_angle_gamma                 119.67392003434556 
loop_ 
_atom_site_label 
_atom_site_type_symbol 
_atom_site_fract_x 
_atom_site_fract_y 
_atom_site_fract_z 
_atom_site_charge 
In1        In  0.15715418  0.11056864  0.05951542     1.36900
C2          C  0.10446310  0.10576798  0.03304772     0.76400
O3          O  0.16860798  0.16263611  0.06446479    -0.62000
O4          O  0.20725648  0.15526192  0.04900633    -0.52900
C5          C  0.15971386  0.09908495  0.11382160     0.69100
O6          O  0.13356666  0.09394767  0.10145095    -0.47800
C7          C  0.15476779  0.05700548  0.03674274     0.73800
O8          O  0.10597394  0.10424548  0.05947552    -0.59700
O9          O  0.17377638  0.08559896  0.02728412    -0.49800
O10         O  0.13006384  0.10990192  0.02023733    -0.56100
C11         C  0.19800240  0.17571780  0.05566045     0.84000
O12         O  0.18539940  0.11160906  0.09852074    -0.58000
O13         O  0.13929535  0.05641055  0.05865982    -0.61300
In14       In  0.15166887  0.04530839  0.28373673     1.36900
C15         C  0.10210986  0.49715997  0.31227885     0.76400
O16         O  0.16579513  0.00647587  0.27666107    -0.62000
O17         O  0.20270997  0.05203129  0.29330227    -0.52900
C18         C  0.15568249  0.06125995  0.22989928     0.69100
O19         O  0.12935632  0.03903822  0.24110005    -0.47800
C20         C  0.14536632  0.09384507  0.30699992     0.73800
O21         O  0.10252291  0.49889630  0.28572533    -0.59700
O22         O  0.16670487  0.08643017  0.31544982    -0.49800
O23         O  0.12696603  0.02035051  0.32416336    -0.56100
C24         C  0.19513260  0.02328403  0.28538644     0.84000
O25         O  0.18019853  0.07504451  0.24631315    -0.58000
O26         O  0.12956267  0.07835618  0.28548870    -0.61300
In27       In  0.03435307  0.15503083  0.39807805     1.36900
C28         C  0.48433641  0.10494899  0.37189464     0.76400
O29         O  0.99651651  0.17115965  0.40098946    -0.62000
O30         O  0.04616856  0.20835827  0.39406506    -0.52900
C31         C  0.04994943  0.15406179  0.45151266     0.69100
O32         O  0.02746448  0.12899572  0.43924073    -0.47800
C33         C  0.08244900  0.15099103  0.37068701     0.73800
O34         O  0.48499877  0.10832189  0.39831952    -0.59700
O35         O  0.07090710  0.16885659  0.36201141    -0.49800
O36         O  0.00911831  0.12726339  0.35917711    -0.56100
C37         C  0.01634466  0.20131204  0.39750383     0.84000
O38         O  0.06391384  0.17960186  0.43647079    -0.58000
O39         O  0.07102355  0.13737415  0.39405304    -0.61300
In40       In  0.10293401  0.15240254  0.61992860     1.36900
C41         C  0.09964809  0.10053993  0.64554728     0.76400
O42         O  0.15694472  0.16706229  0.61654840    -0.62000
O43         O  0.14536285  0.20448060  0.62580872    -0.52900
C44         C  0.08831676  0.15241262  0.56630087     0.69100
O45         O  0.08052686  0.12618400  0.57958981    -0.47800
C46         C  0.05099236  0.15232455  0.64474956     0.73800
O47         O  0.10033170  0.10317923  0.61907132    -0.59700
O48         O  0.07955487  0.16611658  0.65566912    -0.49800
O49         O  0.10069741  0.12445005  0.65864427    -0.56100
C50         C  0.16777801  0.19710427  0.62147817     0.84000
O51         O  0.10441480  0.17849026  0.58035084    -0.58000
O52         O  0.04989838  0.14104908  0.62055145    -0.61300
In53       In  0.44531655  0.11136859  0.95361431     1.36900
C54         C  0.49344558  0.10426450  0.97710714     0.76400
O55         O  0.48545035  0.16429414  0.95480859    -0.62000
O56         O  0.43623292  0.15430062  0.96116352    -0.52900
C57         C  0.43046428  0.09934164  0.89931016     0.69100
O58         O  0.45025582  0.09232774  0.91163569    -0.47800
C59         C  0.39431531  0.06009529  0.97863192     0.73800
O60         O  0.49239729  0.10862526  0.95096817    -0.59700
O61         O  0.40987985  0.08799663  0.99020983    -0.49800
O62         O  0.46966875  0.10310196  0.99088018    -0.56100
C63         C  0.46650363  0.17586704  0.95917798     0.84000
O64         O  0.41930658  0.11374757  0.91460114    -0.58000
O65         O  0.40284488  0.05955166  0.95361074    -0.61300
In66       In  0.37530683  0.04781152  0.72955172     1.36900
C67         C  0.37833545  0.50005784  0.70267798     0.76400
O68         O  0.32289084  0.00630750  0.73022946    -0.62000
O69         O  0.33001155  0.05431707  0.72522727    -0.52900
C70         C  0.38867167  0.06201766  0.78405356     0.69100
O71         O  0.38873444  0.03786496  0.77234100    -0.47800
C72         C  0.42866759  0.09598268  0.70398963     0.73800
O73         O  0.38294384  0.50447006  0.72890455    -0.59700
O74         O  0.39967902  0.08943244  0.69707551    -0.49800
O75         O  0.37267891  0.02058345  0.69016145    -0.56100
C76         C  0.30957128  0.02382835  0.72716687     0.84000
O77         O  0.38051282  0.07835138  0.76803351    -0.58000
O78         O  0.42960324  0.07917538  0.72419400    -0.61300
In79       In  0.32825663  0.44757145  0.28457384     1.36900
C80         C  0.37787519  0.49694215  0.31202278     0.76400
O81         O  0.31340550  0.48562075  0.27553617    -0.62000
O82         O  0.27718466  0.44113527  0.29436080    -0.52900
C83         C  0.32551173  0.42937223  0.23118748     0.69100
O84         O  0.35128423  0.45242970  0.24222989    -0.47800
C85         C  0.33458656  0.39977387  0.30954856     0.73800
O86         O  0.37859397  0.49298871  0.28577745    -0.59700
O87         O  0.31275879  0.40690426  0.31722976    -0.49800
O88         O  0.35175320  0.47566409  0.32401603    -0.56100
C89         C  0.28442950  0.46939785  0.28530756     0.84000
O90         O  0.30064268  0.41605869  0.24739114    -0.58000
O91         O  0.35115984  0.41554147  0.28842916    -0.61300
In92       In  0.32671629  0.38211422  0.05990244     1.36900
C93         C  0.37964497  0.38460700  0.03550698     0.76400
O94         O  0.31317265  0.32924457  0.06086055    -0.62000
O95         O  0.27410342  0.33912411  0.05286089    -0.52900
C96         C  0.32420954  0.39260551  0.11474491     0.69100
O97         O  0.34969007  0.39539081  0.10262505    -0.47800
C98         C  0.33223429  0.43654412  0.03562272     0.73800
O99         O  0.37878735  0.39029009  0.06138897    -0.59700
O100        O  0.31487348  0.40839496  0.02480360    -0.49800
O101        O  0.35341862  0.37768164  0.02233026    -0.56100
C102        C  0.28285560  0.31757613  0.05565946     0.84000
O103        O  0.29932782  0.38330359  0.09886750    -0.58000
O104        O  0.34422704  0.43599762  0.05911347    -0.61300
In105      In  0.04120792  0.38193789  0.95551034     1.36900
C106        C  0.49199420  0.38645412  0.98066296     0.76400
O107        O  0.00141892  0.32929942  0.95190707    -0.62000
O108        O  0.04841566  0.33821969  0.96574160    -0.52900
C109        C  0.05585151  0.39305358  0.90089861     0.69100
O110        O  0.03484812  0.39851554  0.91306330    -0.47800
C111        C  0.09252504  0.43466695  0.97911066     0.73800
O112        O  0.49436241  0.38523007  0.95427677    -0.59700
O113        O  0.07970161  0.40637427  0.99010830    -0.49800
O114        O  0.01524979  0.38616857  0.99406385    -0.56100
C115        C  0.01883279  0.31705951  0.95972040     0.84000
O116        O  0.06906515  0.38102900  0.91665909    -0.58000
O117        O  0.08066059  0.43518248  0.95546772    -0.61300
In118      In  0.10126850  0.44320170  0.72955006     1.36900
C119        C  0.09756783  0.49127951  0.70339166     0.76400
O120        O  0.15364679  0.48374646  0.73333215    -0.62000
O121        O  0.14607486  0.43689801  0.72117838    -0.52900
C122        C  0.08944384  0.42733366  0.78376725     0.71500
O123        O  0.08492703  0.44911551  0.77224707    -0.47800
C124        C  0.04751708  0.39503615  0.70482194     0.73800
O125        O  0.09496012  0.48777908  0.72982084    -0.59700
O126        O  0.07626083  0.40516995  0.69480255    -0.49800
O127        O  0.10169585  0.46996683  0.69061484    -0.56100
C128        C  0.16669069  0.46668053  0.72665146     0.84000
O129        O  0.10084590  0.41388114  0.76753595    -0.58000
O130        O  0.04716746  0.40757054  0.72811222    -0.61300
In131      In  0.37284157  0.33749141  0.62078421     1.36900
C132        C  0.37588923  0.38985935  0.64597155     0.76400
O133        O  0.31900185  0.32190134  0.61633933    -0.62000
O134        O  0.33085109  0.28572125  0.62949985    -0.52900
C135        C  0.38612793  0.33534648  0.56669333     0.69100
O136        O  0.39298055  0.36176440  0.57923882    -0.47800
C137        C  0.42516973  0.33886133  0.64542185     0.73800
O138        O  0.37705008  0.38761544  0.61957050    -0.59700
O139        O  0.39643886  0.32368124  0.65598999    -0.49800
O140        O  0.37315196  0.36534389  0.65925141    -0.56100
C141        C  0.30834067  0.29236394  0.62325653     0.84000
O142        O  0.37140526  0.30980790  0.58168424    -0.58000
O143        O  0.42640547  0.35101147  0.62158932    -0.61300
In144      In  0.44646312  0.33789910  0.39877665     1.36900
C145        C  0.49645309  0.38883661  0.37298408     0.76400
O146        O  0.48543153  0.32361963  0.40637893    -0.62000
O147        O  0.43935794  0.28725559  0.38986166    -0.52900
C148        C  0.42760944  0.33450762  0.45211798     0.69100
O149        O  0.45044103  0.36031788  0.44095331    -0.47800
C150        C  0.39785251  0.34216278  0.37203500     0.73800
O151        O  0.49274664  0.38784992  0.39938212    -0.59700
O152        O  0.40849501  0.32346522  0.36349339    -0.49800
O153        O  0.47475849  0.36381444  0.36022945    -0.56100
C154        C  0.46816645  0.29446183  0.39788902     0.84000
O155        O  0.41480225  0.30974991  0.43605174    -0.58000
O156        O  0.41054408  0.35659013  0.39479323    -0.61300
C157        C  0.38167926  0.30520937  0.52173845    -0.14500
C158        C  0.39576928  0.33468352  0.53717804     0.07600
C159        C  0.42032336  0.36362747  0.52454907    -0.14500
C160        C  0.43069457  0.36327615  0.49705461    -0.14500
C161        C  0.41658087  0.33398058  0.48144112     0.07600
C162        C  0.39185811  0.30491070  0.49398763    -0.14500
H163        H  0.36280828  0.28252634  0.53108394     0.11600
H164        H  0.43194614  0.38659301  0.53610919     0.11600
H165        H  0.44978476  0.38601905  0.48799613     0.11600
H166        H  0.38051753  0.28196047  0.48241726     0.11600
C167        C  0.98598155  0.35982262  0.70457057    -0.14500
C168        C  0.01626899  0.37285795  0.68992260     0.07600
C169        C  0.01566141  0.36935174  0.66057585    -0.14500
C170        C  0.48551889  0.35580849  0.64597165    -0.14500
C171        C  0.45548956  0.34506731  0.66058251     0.07600
C172        C  0.45590392  0.34587009  0.69003686    -0.14500
H173        H  0.98565729  0.36225620  0.72714401     0.11600
H174        H  0.03864247  0.37941311  0.64871068     0.11600
H175        H  0.48582881  0.35548597  0.62321179     0.11600
H176        H  0.43319457  0.33811275  0.70180528     0.11600
C177        C  0.08470620  0.39121924  0.85645266    -0.14500
C178        C  0.06458816  0.40109603  0.87084402     0.07600
C179        C  0.05306261  0.41960092  0.85639055    -0.14500
C180        C  0.06152339  0.42826945  0.82827334    -0.14500
C181        C  0.08129926  0.41820295  0.81372100     0.07600
C182        C  0.09271065  0.39942444  0.82799969    -0.14500
H183        H  0.09405427  0.37703216  0.86713066     0.11600
H184        H  0.03767825  0.42770760  0.86691945     0.11600
H185        H  0.05227223  0.44264195  0.81782447     0.11600
H186        H  0.10804958  0.39138889  0.81724775     0.11600
C187        C  0.40880509  0.38126438  0.99240608    -0.14500
C188        C  0.40880518  0.38582678  0.02162109     0.07600
C189        C  0.43677294  0.39142991  0.03724550    -0.14500
C190        C  0.46403588  0.39204317  0.02394117    -0.14500
C191        C  0.46388158  0.38723274  0.99471813     0.07600
C192        C  0.43608692  0.38207003  0.97910936    -0.14500
H193        H  0.38765825  0.37699631  0.97980872     0.11600
H194        H  0.43748124  0.39509791  0.05980200     0.11600
H195        H  0.48515407  0.39614159  0.03650003     0.11600
H196        H  0.43523021  0.37820550  0.95657763     0.11600
C197        C  0.35906568  0.36271411  0.31116237    -0.14500
C198        C  0.34285507  0.37734851  0.32507731     0.07600
C199        C  0.34048963  0.37547598  0.35449721    -0.14500
C200        C  0.35660628  0.36192317  0.36984883    -0.14500
C201        C  0.37467495  0.34921346  0.35598933     0.07600
C202        C  0.37450706  0.34846135  0.32648940    -0.14500
H203        H  0.36138221  0.36397163  0.28849234     0.11600
H204        H  0.32851984  0.38692654  0.36576405     0.11600
H205        H  0.35641258  0.36291874  0.39255626     0.11600
H206        H  0.38852179  0.33915654  0.31524360     0.11600
C207        C  0.29464117  0.39959235  0.18767229    -0.14500
C208        C  0.32481377  0.41885931  0.20170289     0.07600
C209        C  0.35461596  0.42837785  0.18721640    -0.14500
C210        C  0.35425084  0.41904372  0.15921423    -0.14500
C211        C  0.32413151  0.40060435  0.14488501     0.07600
C212        C  0.29428743  0.39091919  0.15938390    -0.14500
H213        H  0.27130080  0.39182249  0.19839542     0.11600
H214        H  0.37821652  0.44301488  0.19755207     0.11600
H215        H  0.37766009  0.42691605  0.14856175     0.11600
H216        H  0.27075373  0.37667894  0.14886426     0.11600
C217        C  0.37677842  0.44613915  0.70351364    -0.14500
C218        C  0.37858617  0.47245756  0.68802023     0.07600
C219        C  0.37976476  0.47168938  0.65851765    -0.14500
C220        C  0.37928792  0.44500880  0.64478941    -0.14500
C221        C  0.37724415  0.41853806  0.66030445     0.07600
C222        C  0.37601750  0.41939263  0.68981347    -0.14500
H223        H  0.37552496  0.44601893  0.72629519     0.11600
H224        H  0.38112951  0.49169538  0.64611705     0.11600
H225        H  0.38027858  0.44498232  0.62201113     0.11600
H226        H  0.37434572  0.39931751  0.70231620     0.11600
C227        C  0.25226595  0.47489054  0.72556261    -0.14500
C228        C  0.27302681  0.00929141  0.72618880     0.07600
C229        C  0.25847719  0.02934124  0.72636955    -0.14500
C230        C  0.22395182  0.01533261  0.72640105    -0.14500
C231        C  0.20318947  0.48097779  0.72578453     0.07600
C232        C  0.21769959  0.46087804  0.72517003    -0.14500
H233        H  0.26277986  0.45875227  0.72541014     0.11600
H234        H  0.27379628  0.05586275  0.72685030     0.11600
H235        H  0.21344524  0.03147488  0.72687217     0.11600
H236        H  0.20233054  0.43435739  0.72484586     0.11600
C237        C  0.45848830  0.22508467  0.95574673    -0.14500
C238        C  0.47918711  0.21179380  0.96113038     0.07600
C239        C  0.01288203  0.23336685  0.96688123    -0.14500
C240        C  0.02571578  0.26749900  0.96707507    -0.14500
C241        C  0.00522670  0.28087683  0.96109841     0.07600
C242        C  0.47142580  0.25924463  0.95550680    -0.14500
H243        H  0.43251343  0.20909290  0.95092592     0.11600
H244        H  0.02944891  0.22378124  0.97105833     0.11600
H245        H  0.05182880  0.28346064  0.97136817     0.11600
H246        H  0.45496675  0.26877640  0.95064717     0.11600
C247        C  0.37259242  0.02810977  0.02310504    -0.14500
C248        C  0.37097721  0.02960689  0.99373409     0.07600
C249        C  0.35167484  0.00027774  0.97871524    -0.14500
C250        C  0.33649088  0.46979832  0.99257970    -0.14500
C251        C  0.34063817  0.46813701  0.02166450     0.07600
C252        C  0.35773979  0.49769683  0.03689900    -0.14500
H253        H  0.38752043  0.05022435  0.03521844     0.11600
H254        H  0.35007730  0.00074921  0.95601946     0.11600
H255        H  0.32356218  0.44749454  0.98025964     0.11600
H256        H  0.36135154  0.49725145  0.05933775     0.11600
C257        C  0.40315930  0.10356741  0.85529971    -0.14500
C258        C  0.42018953  0.09026263  0.86971539     0.07600
C259        C  0.42604227  0.06703124  0.85600170    -0.14500
C260        C  0.41495736  0.05720538  0.82844998    -0.14500
C261        C  0.39845415  0.07096351  0.81381837     0.07600
C262        C  0.39267072  0.09424047  0.82753139    -0.14500
H263        H  0.39812923  0.12136402  0.86545066     0.11600
H264        H  0.43880630  0.05612178  0.86670405     0.11600
H265        H  0.41980215  0.03924128  0.81842685     0.11600
H266        H  0.37996272  0.10519506  0.81678686     0.11600
C267        C  0.22733373  0.21105934  0.62505351    -0.14500
C268        C  0.20374317  0.22141461  0.62207077     0.07600
C269        C  0.21487179  0.25515775  0.61951627    -0.14500
C270        C  0.24881690  0.27806196  0.61992369    -0.14500
C271        C  0.27241951  0.26781156  0.62338673     0.07600
C272        C  0.26130522  0.23404301  0.62602204    -0.14500
H273        H  0.21946027  0.18514069  0.62694977     0.11600
H274        H  0.19730095  0.26381869  0.61688995     0.11600
H275        H  0.25661585  0.30391105  0.61761252     0.11600
H276        H  0.27890779  0.22538415  0.62847738     0.11600
C277        C  0.49055512  0.13587413  0.64516767    -0.14500
C278        C  0.02056865  0.14661257  0.65980987     0.07600
C279        C  0.01995920  0.14641132  0.68927318    -0.14500
C280        C  0.48978858  0.13266577  0.70377137    -0.14500
C281        C  0.45956838  0.11931849  0.68912661     0.07600
C282        C  0.46029695  0.12274682  0.65977794    -0.14500
H283        H  0.49029893  0.13575032  0.62242652     0.11600
H284        H  0.04259882  0.15432751  0.70114014     0.11600
H285        H  0.48992170  0.13035429  0.72638476     0.11600
H286        H  0.43735334  0.11248873  0.64794674     0.11600
C287        C  0.09925673  0.04694917  0.64496337    -0.14500
C288        C  0.09805549  0.07201823  0.66018077     0.07600
C289        C  0.09579541  0.06990809  0.68966243    -0.14500
C290        C  0.09514183  0.04338311  0.70368787    -0.14500
C291        C  0.09670956  0.01849482  0.68851757     0.07600
C292        C  0.09856833  0.02039124  0.65899929    -0.14500
H293        H  0.10103521  0.04801909  0.62221602     0.11600
H294        H  0.09477442  0.08887473  0.70189926     0.11600
H295        H  0.09379891  0.04255658  0.72645156     0.11600
H296        H  0.09980125  0.00150604  0.64677677     0.11600
C297        C  0.47166484  0.21552221  0.39031504    -0.14500
C298        C  0.00478170  0.22570131  0.39725684     0.07600
C299        C  0.02593461  0.25877793  0.40433822    -0.14500
C300        C  0.01401316  0.28110789  0.40468706    -0.14500
C301        C  0.48085384  0.27088874  0.39753511     0.07600
C302        C  0.45992970  0.23788866  0.39017378    -0.14500
H303        H  0.45481943  0.19015726  0.38467783     0.11600
H304        H  0.05150386  0.26722131  0.40999932     0.11600
H305        H  0.03077800  0.30642968  0.41049053     0.11600
H306        H  0.43434731  0.22927590  0.38449897     0.11600
C307        C  0.08385618  0.18257125  0.49376258    -0.14500
C308        C  0.05962965  0.15357319  0.48092799     0.07600
C309        C  0.04512861  0.12407203  0.49628483    -0.14500
C310        C  0.05468813  0.12363405  0.52403941    -0.14500
C311        C  0.07876622  0.15266372  0.53687690     0.07600
C312        C  0.09320733  0.18218221  0.52157314    -0.14500
H313        H  0.09555297  0.20563628  0.48232442     0.11600
H314        H  0.02650980  0.10138514  0.48683200     0.11600
H315        H  0.04302696  0.10060573  0.53553901     0.11600
H316        H  0.11181857  0.20486164  0.53103548     0.11600
C317        C  0.42760278  0.05527708  0.37082199    -0.14500
C318        C  0.45699296  0.07721262  0.35682205     0.07600
C319        C  0.46025730  0.07243874  0.32806152    -0.14500
C320        C  0.43467849  0.04617783  0.31358843    -0.14500
C321        C  0.40520734  0.02432124  0.32749856     0.07600
C322        C  0.40191088  0.02906301  0.35628992    -0.14500
H323        H  0.42440477  0.05848036  0.39297186     0.11600
H324        H  0.48268738  0.08892606  0.31676434     0.11600
H325        H  0.43794915  0.04303789  0.29144218     0.11600
H326        H  0.37942112  0.01261795  0.36752625     0.11600
C327        C  0.20556568  0.47552353  0.28605326    -0.14500
C328        C  0.21819272  0.00977611  0.28621147     0.07600
C329        C  0.25271837  0.03052403  0.28669861    -0.14500
C330        C  0.27406973  0.01728896  0.28636419    -0.14500
C331        C  0.26142581  0.48301927  0.28611091     0.07600
C332        C  0.22690100  0.46229565  0.28627383    -0.14500
H333        H  0.17903311  0.45887009  0.28587563     0.11600
H334        H  0.26320281  0.05697469  0.28683527     0.11600
H335        H  0.30060167  0.03391568  0.28647861     0.11600
H336        H  0.21640615  0.43584747  0.28605532     0.11600
C337        C  0.13985292  0.11838237  0.35184294    -0.14500
C338        C  0.13662296  0.11595572  0.32248639     0.07600
C339        C  0.11950507  0.12980454  0.30890742    -0.14500
C340        C  0.10419844  0.14396144  0.32459483    -0.14500
C341        C  0.10515702  0.14389680  0.35408783     0.07600
C342        C  0.12397212  0.13189025  0.36754665    -0.14500
H343        H  0.15248720  0.10749404  0.36287189     0.11600
H344        H  0.11646952  0.12807220  0.28630575     0.11600
H345        H  0.08951045  0.15271263  0.31371398     0.11600
H346        H  0.12497534  0.13142631  0.39023676     0.11600
C347        C  0.04819176  0.44419483  0.37240886    -0.14500
C348        C  0.02370164  0.41681226  0.35787848     0.07600
C349        C  0.02520642  0.41622507  0.32837546    -0.14500
C350        C  0.05053071  0.44247787  0.31366787    -0.14500
C351        C  0.07502600  0.46985251  0.32809037     0.07600
C352        C  0.07370617  0.47049082  0.35764196    -0.14500
H353        H  0.04765143  0.44526156  0.39516366     0.11600
H354        H  0.00674187  0.39544594  0.31660744     0.11600
H355        H  0.05105259  0.44121313  0.29092196     0.11600
H356        H  0.09234229  0.49129168  0.36929608     0.11600
C357        C  0.25323702  0.22649637  0.04747507    -0.14500
C358        C  0.21933563  0.21207022  0.05367774     0.07600
C359        C  0.20590612  0.23283510  0.05873248    -0.14500
C360        C  0.22610783  0.26718805  0.05840252    -0.14500
C361        C  0.26026213  0.28150695  0.05334066     0.07600
C362        C  0.27346181  0.26076928  0.04748751    -0.14500
H363        H  0.26429225  0.21125548  0.04327535     0.11600
H364        H  0.17975079  0.22246984  0.06335866     0.11600
H365        H  0.21524259  0.28250475  0.06300832     0.11600
H366        H  0.29970916  0.27114184  0.04323085     0.11600
C367        C  0.11968472  0.46631461  0.02295096    -0.14500
C368        C  0.11684097  0.46538198  0.99352208     0.07600
C369        C  0.13274412  0.49520124  0.97849881    -0.14500
C370        C  0.14839180  0.02536631  0.99270439    -0.14500
C371        C  0.14797318  0.02629240  0.02218337     0.07600
C372        C  0.13476669  0.99651108  0.03717835    -0.14500
H373        H  0.10773757  0.44377396  0.03509595     0.11600
H374        H  0.13110535  0.49526474  0.95578927     0.11600
H375        H  0.15817613  0.04790757  0.98063342     0.11600
H376        H  0.13420228  0.99654988  0.05994850     0.11600
C377        C  0.18896021  0.10049121  0.15870360    -0.14500
C378        C  0.15945307  0.08984652  0.14354085     0.07600
C379        C  0.12902186  0.06926773  0.15679920    -0.14500
C380        C  0.12796889  0.05965121  0.18469921    -0.14500
C381        C  0.15732035  0.07072989  0.20009206     0.07600
C382        C  0.18787745  0.09124877  0.18689212    -0.14500
H383        H  0.21276160  0.11616281  0.14886830     0.11600
H384        H  0.10591049  0.06035922  0.14551073     0.11600
H385        H  0.10410047  0.04384073  0.19433289     0.11600
H386        H  0.21088499  0.10002018  0.19832909     0.11600
C387        C  0.07565558  0.10741803  0.98904422    -0.14500
C388        C  0.07523506  0.10321016  0.01835246     0.07600
C389        C  0.04682743  0.09711594  0.03357935    -0.14500
C390        C  0.01982021  0.09638592  0.01996813    -0.14500
C391        C  0.02071659  0.10184476  0.99083015     0.07600
C392        C  0.04861964  0.10673894  0.97541190    -0.14500
H393        H  0.09713016  0.11188871  0.97675450     0.11600
H394        H  0.04566437  0.09341825  0.05615293     0.11600
H395        H  0.99852085  0.09226344  0.03235381     0.11600
H396        H  0.04989857  0.11085579  0.95290238     0.11600
In397      In  0.15715825  0.61056721  0.05952051     1.36900
C398        C  0.10446573  0.60576347  0.03305201     0.76400
O399        O  0.16861181  0.66263392  0.06446890    -0.62000
O400        O  0.20726424  0.65526137  0.04901886    -0.52900
C401        C  0.15971245  0.59908426  0.11382709     0.69100
O402        O  0.13356854  0.59395622  0.10145618    -0.47800
C403        C  0.15477495  0.55700621  0.03674744     0.73800
O404        O  0.10597506  0.60423699  0.05947953    -0.59700
O405        O  0.17378475  0.58560030  0.02729067    -0.49800
O406        O  0.13006871  0.60990260  0.02024199    -0.56100
C407        C  0.19800872  0.67571664  0.05567091     0.84000
O408        O  0.18539772  0.61159836  0.09852606    -0.58000
O409        O  0.13929927  0.55640955  0.05866300    -0.61300
In410      In  0.15166137  0.54530336  0.28373965     1.36900
C411        C  0.10211927  0.99716015  0.31227613     0.76400
O412        O  0.16578253  0.50646594  0.27667311    -0.62000
O413        O  0.20270332  0.55202889  0.29329860    -0.52900
C414        C  0.15567217  0.56125532  0.22990366     0.69100
O415        O  0.12934190  0.53904336  0.24110706    -0.47800
C416        C  0.14537074  0.59384381  0.30700434     0.73800
O417        O  0.10252979  0.99889991  0.28572287    -0.59700
O418        O  0.16670059  0.58641866  0.31545734    -0.49800
O419        O  0.12695493  0.52035173  0.32416649    -0.56100
C420        C  0.19512263  0.52327796  0.28539163     0.84000
O421        O  0.18019286  0.57502808  0.24631383    -0.58000
O422        O  0.12957177  0.57836439  0.28548823    -0.61300
In423      In  0.03435445  0.65502674  0.39807955     1.36900
C424        C  0.48433375  0.60494458  0.37189048     0.76400
O425        O  0.99651580  0.67115310  0.40100671    -0.62000
O426        O  0.04616281  0.70835105  0.39405808    -0.52900
C427        C  0.04996529  0.65406458  0.45151094     0.69100
O428        O  0.02747866  0.62899641  0.43924250    -0.47800
C429        C  0.08244726  0.65097946  0.37069254     0.73800
O430        O  0.48499965  0.60831588  0.39831562    -0.59700
O431        O  0.07092074  0.66886045  0.36202242    -0.49800
O432        O  0.00911868  0.62726973  0.35917402    -0.56100
C433        C  0.01634028  0.70130457  0.39750928     0.84000
O434        O  0.06392317  0.67960390  0.43646774    -0.58000
O435        O  0.07100629  0.63734807  0.39405077    -0.61300
In436      In  0.10294095  0.65240884  0.61993082     1.36900
C437        C  0.09966054  0.60055372  0.64555577     0.76400
O438        O  0.15694959  0.66706121  0.61654120    -0.62000
O439        O  0.14537420  0.70448464  0.62580131    -0.52900
C440        C  0.08832943  0.65242161  0.56630162     0.69100
O441        O  0.08054287  0.62619290  0.57958931    -0.47800
C442        C  0.05099669  0.65232239  0.64475502     0.73800
O443        O  0.10031715  0.60317828  0.61907926    -0.59700
O444        O  0.07956217  0.66612792  0.65566922    -0.49800
O445        O  0.10073503  0.62447623  0.65865151    -0.56100
C446        C  0.16778627  0.69710447  0.62146803     0.84000
O447        O  0.10441863  0.67849843  0.58035452    -0.58000
O448        O  0.04990055  0.64103781  0.62056047    -0.61300
In449      In  0.44531075  0.61136470  0.95362215     1.36900
C450        C  0.49343548  0.60425190  0.97711495     0.76400
O451        O  0.48544453  0.66429162  0.95481557    -0.62000
O452        O  0.43622773  0.65429806  0.96117181    -0.52900
C453        C  0.43046089  0.59933325  0.89931662     0.69100
O454        O  0.45025777  0.59232744  0.91164303    -0.47800
C455        C  0.39430870  0.56009278  0.97864138     0.73800
O456        O  0.49238939  0.60861698  0.95097653    -0.59700
O457        O  0.40987667  0.58799313  0.99022045    -0.49800
O458        O  0.46965922  0.60309067  0.99088785    -0.56100
C459        C  0.46649815  0.67586481  0.95918531     0.84000
O460        O  0.41929551  0.61373244  0.91460743    -0.58000
O461        O  0.40283506  0.55955045  0.95361885    -0.61300
In462      In  0.37530956  0.54780870  0.72955471     1.36900
C463        C  0.37832993  0.00005566  0.70268092     0.76400
O464        O  0.32289409  0.50630367  0.73022474    -0.62000
O465        O  0.33001473  0.55431522  0.72523873    -0.52900
C466        C  0.38867127  0.56200722  0.78405820     0.69100
O467        O  0.38873000  0.53785286  0.77234459    -0.47800
C468        C  0.42866839  0.59598378  0.70399579     0.73800
O469        O  0.38292915  0.00446497  0.72890850    -0.59700
O470        O  0.39967920  0.58942643  0.69707642    -0.49800
O471        O  0.37267702  0.52058236  0.69016170    -0.56100
C472        C  0.30957467  0.52382565  0.72717003     0.84000
O473        O  0.38051661  0.57834471  0.76803856    -0.58000
O474        O  0.42960517  0.57918303  0.72420506    -0.61300
In475      In  0.32826253  0.94757124  0.28457144     1.36900
C476        C  0.37788128  0.99694268  0.31202419     0.76400
O477        O  0.31341045  0.98561855  0.27552727    -0.62000
O478        O  0.27719271  0.94113917  0.29436308    -0.52900
C479        C  0.32550931  0.92937313  0.23118331     0.69100
O480        O  0.35128454  0.95242744  0.24222547    -0.47800
C481        C  0.33458940  0.89976552  0.30953496     0.73800
O482        O  0.37860273  0.99298705  0.28577948    -0.59700
O483        O  0.31276109  0.90689434  0.31721830    -0.49800
O484        O  0.35175734  0.97566536  0.32401576    -0.56100
C485        C  0.28443630  0.96939896  0.28530320     0.84000
O486        O  0.30064130  0.91606222  0.24738823    -0.58000
O487        O  0.35116680  0.91554080  0.28841982    -0.61300
In488      In  0.32670917  0.88211665  0.05989571     1.36900
C489        C  0.37963575  0.88460918  0.03549827     0.76400
O490        O  0.31317435  0.82924963  0.06084399    -0.62000
O491        O  0.27409545  0.83912168  0.05286899    -0.52900
C492        C  0.32420272  0.89261166  0.11473746     0.69100
O493        O  0.34968179  0.89539114  0.10261904    -0.47800
C494        C  0.33223252  0.93654739  0.03561530     0.73800
O495        O  0.37877513  0.89028124  0.06138260    -0.59700
O496        O  0.31486517  0.90839812  0.02479789    -0.49800
O497        O  0.35341329  0.87769571  0.02231997    -0.56100
C498        C  0.28285364  0.81757700  0.05565785     0.84000
O499        O  0.29932287  0.88331473  0.09885872    -0.58000
O500        O  0.34422767  0.93600006  0.05910470    -0.61300
In501      In  0.04119568  0.88193215  0.95551419     1.36900
C502        C  0.49198195  0.88644551  0.98065740     0.76400
O503        O  0.00140628  0.82929314  0.95192553    -0.62000
O504        O  0.04841170  0.83821892  0.96574090    -0.52900
C505        C  0.05584318  0.89304911  0.90090346     0.69100
O506        O  0.03484824  0.89852225  0.91306954    -0.47800
C507        C  0.09251140  0.93466031  0.97911462     0.73800
O508        O  0.49435523  0.88522544  0.95427144    -0.59700
O509        O  0.07968813  0.90636828  0.99011384    -0.49800
O510        O  0.01523948  0.88618016  0.99406059    -0.56100
C511        C  0.01882664  0.81705656  0.95972900     0.84000
O512        O  0.06904531  0.88101103  0.91666179    -0.58000
O513        O  0.08064669  0.93517464  0.95547162    -0.61300
In514      In  0.10126318  0.94319731  0.72955340     1.36900
C515        C  0.09756189  0.99127118  0.70338816     0.76400
O516        O  0.15364102  0.98374359  0.73333646    -0.62000
O517        O  0.14607076  0.93689510  0.72118470    -0.52900
C518        C  0.08943734  0.92732981  0.78377169     0.71500
O519        O  0.08492227  0.94911254  0.77225101    -0.47800
C520        C  0.04751516  0.89503483  0.70482033     0.73800
O521        O  0.09495220  0.98777283  0.72981749    -0.59700
O522        O  0.07626063  0.90516372  0.69480693    -0.49800
O523        O  0.10169345  0.96995901  0.69061438    -0.56100
C524        C  0.16668587  0.96667825  0.72665642     0.84000
O525        O  0.10083683  0.91387516  0.76754010    -0.58000
O526        O  0.04716137  0.90757131  0.72810850    -0.61300
In527      In  0.37285010  0.83749563  0.62078358     1.36900
C528        C  0.37589690  0.88986318  0.64597378     0.76400
O529        O  0.31901004  0.82190136  0.61632095    -0.62000
O530        O  0.33085760  0.78572674  0.62950175    -0.52900
C531        C  0.38614438  0.83535721  0.56669319     0.69100
O532        O  0.39300710  0.86177555  0.57924282    -0.47800
C533        C  0.42517031  0.83885176  0.64542597     0.73800
O534        O  0.37707291  0.88762688  0.61957326    -0.59700
O535        O  0.39643792  0.82367670  0.65599126    -0.49800
O536        O  0.37314452  0.86534054  0.65925150    -0.56100
C537        C  0.30834798  0.79236593  0.62324610     0.84000
O538        O  0.37140882  0.80981632  0.58167975    -0.58000
O539        O  0.42641157  0.85100302  0.62159297    -0.61300
In540      In  0.44646297  0.83789800  0.39877086     1.36900
C541        C  0.49645408  0.88884067  0.37298412     0.76400
O542        O  0.48543093  0.82361633  0.40636727    -0.62000
O543        O  0.43935243  0.78725207  0.38985887    -0.52900
C544        C  0.42761819  0.83451442  0.45211482     0.69100
O545        O  0.45044675  0.86032362  0.44094641    -0.47800
C546        C  0.39784928  0.84214934  0.37201972     0.73800
O547        O  0.49274264  0.88785327  0.39938147    -0.59700
O548        O  0.40850328  0.82346130  0.36347873    -0.49800
O549        O  0.47476451  0.86381695  0.36022798    -0.56100
C550        C  0.46816270  0.79445789  0.39787989     0.84000
O551        O  0.41480906  0.80975480  0.43605081    -0.58000
O552        O  0.41053050  0.85657251  0.39478174    -0.61300
C553        C  0.38169098  0.80522148  0.52173678    -0.14500
C554        C  0.39578670  0.83469472  0.53717783     0.07600
C555        C  0.42034618  0.86363669  0.52455010    -0.14500
C556        C  0.43071488  0.86328447  0.49705451    -0.14500
C557        C  0.41659444  0.83398973  0.48143948     0.07600
C558        C  0.39186866  0.80492167  0.49398586    -0.14500
H559        H  0.36281656  0.78253976  0.53108127     0.11600
H560        H  0.43197419  0.88660105  0.53611159     0.11600
H561        H  0.44980850  0.88602579  0.48799654     0.11600
H562        H  0.38052389  0.78197185  0.48241493     0.11600
C563        C  0.98598158  0.85981806  0.70456271    -0.14500
C564        C  0.01627020  0.87285986  0.68991643     0.07600
C565        C  0.01566626  0.86936502  0.66056847    -0.14500
C566        C  0.48551541  0.85578117  0.64598402    -0.14500
C567        C  0.45548622  0.84505380  0.66059141     0.07600
C568        C  0.45589914  0.84587180  0.69004551    -0.14500
H569        H  0.98565499  0.86224461  0.72713688     0.11600
H570        H  0.03864872  0.87943385  0.64870465     0.11600
H571        H  0.48582631  0.85544568  0.62322443     0.11600
H572        H  0.43318973  0.83812424  0.70181125     0.11600
C573        C  0.08468901  0.89120486  0.85645507    -0.14500
C574        C  0.06458331  0.90109441  0.87084980     0.07600
C575        C  0.05307280  0.91961454  0.85640041    -0.14500
C576        C  0.06153328  0.92828241  0.82828303    -0.14500
C577        C  0.08129448  0.91820102  0.81372641     0.07600
C578        C  0.09269333  0.89940988  0.82800195    -0.14500
H579        H  0.09402669  0.87700707  0.86713031     0.11600
H580        H  0.03769968  0.92773272  0.86693240     0.11600
H581        H  0.05229300  0.94266608  0.81783738     0.11600
H582        H  0.10802159  0.89136341  0.81724718     0.11600
C583        C  0.40879300  0.88125942  0.99239740    -0.14500
C584        C  0.40879481  0.88582678  0.02161189     0.07600
C585        C  0.43676317  0.89143155  0.03723609    -0.14500
C586        C  0.46402417  0.89204025  0.02393263    -0.14500
C587        C  0.46386835  0.88722466  0.99471039     0.07600
C588        C  0.43607352  0.88206115  0.97910121    -0.14500
H589        H  0.38764537  0.87698989  0.97980003     0.11600
H590        H  0.43747350  0.89510435  0.05979199     0.11600
H591        H  0.48514273  0.89614012  0.03649166     0.11600
H592        H  0.43521591  0.87819322  0.95656998     0.11600
C593        C  0.35907574  0.86271073  0.31114290    -0.14500
C594        C  0.34285403  0.87733379  0.32505827     0.07600
C595        C  0.34047408  0.87544535  0.35447704    -0.14500
C596        C  0.35658938  0.86189136  0.36982866    -0.14500
C597        C  0.37467078  0.84919534  0.35597017     0.07600
C598        C  0.37451584  0.84845636  0.32646989    -0.14500
H599        H  0.36140316  0.86398007  0.28847373     0.11600
H600        H  0.32849502  0.88688622  0.36574438     0.11600
H601        H  0.35638568  0.86287692  0.39253635     0.11600
H602        H  0.38854080  0.83916232  0.31522481     0.11600
C603        C  0.29463493  0.89959939  0.18766595    -0.14500
C604        C  0.32480817  0.91886065  0.20169776     0.07600
C605        C  0.35460941  0.92837420  0.18721152    -0.14500
C606        C  0.35424334  0.91904252  0.15920857    -0.14500
C607        C  0.32412413  0.90061019  0.14487777     0.07600
C608        C  0.29428040  0.89092902  0.15937631    -0.14500
H609        H  0.27129493  0.89183193  0.19838919     0.11600
H610        H  0.37821044  0.94300547  0.19754829     0.11600
H611        H  0.37765236  0.92691073  0.14855682     0.11600
H612        H  0.27074651  0.87669315  0.14885572     0.11600
C613        C  0.37676444  0.94613225  0.70351741    -0.14500
C614        C  0.37858482  0.97245660  0.68802451     0.07600
C615        C  0.37978161  0.97169690  0.65852252    -0.14500
C616        C  0.37930891  0.94501844  0.64479412    -0.14500
C617        C  0.37725086  0.91854097  0.66030812     0.07600
C618        C  0.37600720  0.91938734  0.68981681    -0.14500
H619        H  0.37549750  0.94600583  0.72629839     0.11600
H620        H  0.38115706  0.99170781  0.64612238     0.11600
H621        H  0.38031302  0.94499856  0.62201639     0.11600
H622        H  0.37432433  0.89930709  0.70231869     0.11600
C623        C  0.25226294  0.97489224  0.72556864    -0.14500
C624        C  0.27303059  0.50928941  0.72619108     0.07600
C625        C  0.25848226  0.52934021  0.72637824    -0.14500
C626        C  0.22395729  0.51533295  0.72640672    -0.14500
C627        C  0.20318495  0.98097700  0.72578731     0.07600
C628        C  0.21769641  0.96087833  0.72517800    -0.14500
H629        H  0.26277771  0.95875461  0.72542127     0.11600
H630        H  0.27380210  0.55586148  0.72686568     0.11600
H631        H  0.21345179  0.53147610  0.72688236     0.11600
H632        H  0.20232829  0.93435748  0.72485999     0.11600
C633        C  0.45848508  0.72508333  0.95574181    -0.14500
C634        C  0.47918151  0.71179212  0.96113588     0.07600
C635        C  0.01288776  0.73336883  0.96688513    -0.14500
C636        C  0.02571795  0.76750056  0.96708061    -0.14500
C637        C  0.00522543  0.78087497  0.96110529     0.07600
C638        C  0.47142332  0.75924355  0.95549764    -0.14500
H639        H  0.43251177  0.70909140  0.95091543     0.11600
H640        H  0.02945647  0.72378520  0.97106147     0.11600
H641        H  0.05183039  0.78346440  0.97137431     0.11600
H642        H  0.45496619  0.76877525  0.95062984     0.11600
C643        C  0.37257364  0.52810637  0.02311460    -0.14500
C644        C  0.37097004  0.52960329  0.99374249     0.07600
C645        C  0.35167956  0.50027292  0.97872179    -0.14500
C646        C  0.33648325  0.96980326  0.99257395    -0.14500
C647        C  0.34064120  0.96814146  0.02165710     0.07600
C648        C  0.35775712  0.99770092  0.03688972    -0.14500
H649        H  0.38749167  0.55022196  0.03522981     0.11600
H650        H  0.35009065  0.50074383  0.95602531     0.11600
H651        H  0.32354324  0.94749972  0.98025548     0.11600
H652        H  0.36137802  0.99725542  0.05932695     0.11600
C653        C  0.40316182  0.60355980  0.85530321    -0.14500
C654        C  0.42018895  0.59025338  0.86972108     0.07600
C655        C  0.42603987  0.56701967  0.85600901    -0.14500
C656        C  0.41495430  0.55719207  0.82845716    -0.14500
C657        C  0.39845382  0.57095206  0.81382360     0.07600
C658        C  0.39267381  0.59423205  0.82753502    -0.14500
H659        H  0.39813358  0.62135846  0.86545250     0.11600
H660        H  0.43880181  0.55610910  0.86671308     0.11600
H661        H  0.41979641  0.53922542  0.81843547     0.11600
H662        H  0.37996826  0.60518853  0.81678918     0.11600
C663        C  0.22734156  0.71105979  0.62505858    -0.14500
C664        C  0.20375162  0.72141305  0.62205590     0.07600
C665        C  0.21488034  0.75515396  0.61947986    -0.14500
C666        C  0.24882492  0.77805881  0.61988700    -0.14500
C667        C  0.27242713  0.76781175  0.62337240     0.07600
C668        C  0.26131284  0.73404493  0.62602819    -0.14500
H669        H  0.21946750  0.68514245  0.62697158     0.11600
H670        H  0.19730972  0.76381261  0.61683735     0.11600
H671        H  0.25662357  0.80390581  0.61755908     0.11600
H672        H  0.27891535  0.72538842  0.62850136     0.11600
C673        C  0.49055347  0.63587110  0.64517191    -0.14500
C674        C  0.02057315  0.64660779  0.65981691     0.07600
C675        C  0.01996515  0.64640873  0.68928034    -0.14500
C676        C  0.48978952  0.63266545  0.70377577    -0.14500
C677        C  0.45956878  0.61931831  0.68913198     0.07600
C678        C  0.46029600  0.62274450  0.65978317    -0.14500
H679        H  0.49029604  0.63574676  0.62243082     0.11600
H680        H  0.04260576  0.65432692  0.70114659     0.11600
H681        H  0.48992365  0.63035543  0.72638934     0.11600
H682        H  0.43735199  0.61248599  0.64795275     0.11600
C683        C  0.09924634  0.54695288  0.64497048    -0.14500
C684        C  0.09806923  0.57203330  0.66018990     0.07600
C685        C  0.09583218  0.56993382  0.68967267    -0.14500
C686        C  0.09517618  0.54340688  0.70369699    -0.14500
C687        C  0.09671786  0.51850607  0.68852412     0.07600
C688        C  0.09855455  0.52039281  0.65900500    -0.14500
H689        H  0.10100739  0.54801476  0.62222209     0.11600
H690        H  0.09483033  0.58890975  0.70191094     0.11600
H691        H  0.09385184  0.54258844  0.72646135     0.11600
H692        H  0.09976706  0.50149807  0.64678062     0.11600
C693        C  0.47165984  0.71551849  0.39029232    -0.14500
C694        C  0.00477522  0.72569303  0.39726249     0.07600
C695        C  0.02592975  0.75877188  0.40433607    -0.14500
C696        C  0.01400852  0.78110223  0.40468285    -0.14500
C697        C  0.48084912  0.77088415  0.39752076     0.07600
C698        C  0.45992530  0.73788561  0.39015383    -0.14500
H699        H  0.45481479  0.69015432  0.38465219     0.11600
H700        H  0.05150075  0.76721720  0.40999231     0.11600
H701        H  0.03077548  0.80642571  0.41047984     0.11600
H702        H  0.43434365  0.72927451  0.38447761     0.11600
C703        C  0.08387187  0.68257955  0.49376070    -0.14500
C704        C  0.05965227  0.65357860  0.48092445     0.07600
C705        C  0.04516026  0.62407635  0.49627916    -0.14500
C706        C  0.05471794  0.62364014  0.52403431    -0.14500
C707        C  0.07878514  0.65267276  0.53687540     0.07600
C708        C  0.09322072  0.68219235  0.52157277    -0.14500
H709        H  0.09556251  0.70564532  0.48232364     0.11600
H710        H  0.02654805  0.60138704  0.48682460     0.11600
H711        H  0.04306229  0.60061051  0.53553218     0.11600
H712        H  0.11182455  0.70487394  0.53103746     0.11600
C713        C  0.42760289  0.55526894  0.37082122    -0.14500
C714        C  0.45698957  0.57720829  0.35681896     0.07600
C715        C  0.46024984  0.57243859  0.32805681    -0.14500
C716        C  0.43467024  0.54617841  0.31358415    -0.14500
C717        C  0.40520239  0.52431874  0.32749653     0.07600
C718        C  0.40191027  0.52905525  0.35628975    -0.14500
H719        H  0.42440818  0.55846891  0.39297263     0.11600
H720        H  0.48267737  0.58892885  0.31675787     0.11600
H721        H  0.43793749  0.54304175  0.29143660     0.11600
H722        H  0.37942332  0.51260680  0.36752782     0.11600
C723        C  0.20557474  0.97552832  0.28602081    -0.14500
C724        C  0.21818307  0.50977130  0.28621870     0.07600
C725        C  0.25270870  0.53052081  0.28668118    -0.14500
C726        C  0.27406080  0.51728697  0.28634727    -0.14500
C727        C  0.26143357  0.98302138  0.28610479     0.07600
C728        C  0.22690866  0.96229883  0.28624279    -0.14500
H729        H  0.17904214  0.95887544  0.28582317     0.11600
H730        H  0.26319225  0.55697172  0.28679754     0.11600
H731        H  0.30059258  0.53391506  0.28644238     0.11600
H732        H  0.21641331  0.93585091  0.28600552     0.11600
C733        C  0.13985102  0.61837054  0.35185041    -0.14500
C734        C  0.13662897  0.61595342  0.32249306     0.07600
C735        C  0.11951547  0.62980682  0.30891441    -0.14500
C736        C  0.10420446  0.64395844  0.32460232    -0.14500
C737        C  0.10515680  0.64388648  0.35409521     0.07600
C738        C  0.12396753  0.63187519  0.36755450    -0.14500
H739        H  0.15248075  0.60747712  0.36287902     0.11600
H740        H  0.11648524  0.62808063  0.28631211     0.11600
H741        H  0.08951839  0.65271180  0.31372144     0.11600
H742        H  0.12496503  0.63140512  0.39024459     0.11600
C743        C  0.04820531  0.94419173  0.37240765    -0.14500
C744        C  0.02370905  0.91681284  0.35787769     0.07600
C745        C  0.02520954  0.91622840  0.32837419    -0.14500
C746        C  0.05053496  0.94248008  0.31366584    -0.14500
C747        C  0.07503567  0.96985158  0.32808803     0.07600
C748        C  0.07372036  0.97048682  0.35764001    -0.14500
H749        H  0.04766909  0.94525647  0.39516261     0.11600
H750        H  0.00674032  0.89545201  0.31660617     0.11600
H751        H  0.05105301  0.94121740  0.29091970     0.11600
H752        H  0.09236047  0.99128491  0.36929405     0.11600
C753        C  0.25323935  0.72649773  0.04747242    -0.14500
C754        C  0.21934156  0.71206942  0.05369126     0.07600
C755        C  0.20591329  0.73283255  0.05876062    -0.14500
C756        C  0.22611195  0.76718550  0.05842624    -0.14500
C757        C  0.26026263  0.78150689  0.05334580     0.07600
C758        C  0.27346176  0.76077119  0.04748087    -0.14500
H759        H  0.26429349  0.71125824  0.04326072     0.11600
H760        H  0.17976082  0.72246588  0.06340018     0.11600
H761        H  0.21524745  0.78250066  0.06304208     0.11600
H762        H  0.29970635  0.77114577  0.04321041     0.11600
C763        C  0.11967930  0.96631256  0.02295146    -0.14500
C764        C  0.11682818  0.96537675  0.99352320     0.07600
C765        C  0.13272471  0.99519450  0.97849739    -0.14500
C766        C  0.14841067  0.52537151  0.99270849    -0.14500
C767        C  0.14798285  0.52629440  0.02218741     0.07600
C768        C  0.13476970  0.49651139  0.03718033    -0.14500
H769        H  0.10773688  0.94377307  0.03509826     0.11600
H770        H  0.13107986  0.99525550  0.95578825     0.11600
H771        H  0.15820119  0.54791445  0.98063906     0.11600
H772        H  0.13419822  0.49654760  0.05995044     0.11600
C773        C  0.18895498  0.60047260  0.15870566    -0.14500
C774        C  0.15944838  0.58984653  0.14354680     0.07600
C775        C  0.12901467  0.56928602  0.15680914    -0.14500
C776        C  0.12795905  0.55966914  0.18470934    -0.14500
C777        C  0.15731074  0.57072788  0.20009754     0.07600
C778        C  0.18787005  0.59122886  0.18689379    -0.14500
H779        H  0.21275807  0.61612970  0.14886722     0.11600
H780        H  0.10590326  0.56039196  0.14552367     0.11600
H781        H  0.10408904  0.54387327  0.19434648     0.11600
H782        H  0.21087768  0.59998463  0.19832736     0.11600
C783        C  0.07566195  0.60742249  0.98904959    -0.14500
C784        C  0.07523720  0.60320494  0.01835671     0.07600
C785        C  0.04682483  0.59709978  0.03358187    -0.14500
C786        C  0.01981785  0.59637028  0.01997031    -0.14500
C787        C  0.02071999  0.60184180  0.99083404     0.07600
C788        C  0.04862676  0.60674449  0.97541718    -0.14500
H789        H  0.09713946  0.61190025  0.97676096     0.11600
H790        H  0.04565781  0.59339288  0.05615442     0.11600
H791        H  0.99851440  0.59223884  0.03235448     0.11600
H792        H  0.04990930  0.61086923  0.95290863     0.11600
In793      In  0.65715611  0.11057056  0.05951929     1.36900
C794        C  0.60446786  0.10577436  0.03304957     0.76400
O795        O  0.66861281  0.16263768  0.06447605    -0.62000
O796        O  0.70725716  0.15526269  0.04900737    -0.52900
C797        C  0.65971809  0.09908580  0.11382479     0.69100
O798        O  0.63357119  0.09395228  0.10145588    -0.47800
C799        C  0.65476805  0.05700815  0.03674447     0.73800
O800        O  0.60597338  0.10424153  0.05947696    -0.59700
O801        O  0.67378265  0.08560244  0.02729044    -0.49800
O802        O  0.63007234  0.10991619  0.02024074    -0.56100
C803        C  0.69800518  0.17571877  0.05566649     0.84000
O804        O  0.68540259  0.11160740  0.09852277    -0.58000
O805        O  0.63928914  0.05641149  0.05865781    -0.61300
In806      In  0.65166716  0.04530628  0.28373864     1.36900
C807        C  0.60211663  0.49715605  0.31227767     0.76400
O808        O  0.66579022  0.00647012  0.27666817    -0.62000
O809        O  0.70270657  0.05202742  0.29330529    -0.52900
C810        C  0.65568398  0.06125819  0.22990162     0.69100
O811        O  0.62935491  0.03904163  0.24110296    -0.47800
C812        C  0.64536936  0.09384439  0.30700211     0.73800
O813        O  0.60252471  0.49889928  0.28572470    -0.59700
O814        O  0.66670109  0.08642201  0.31545563    -0.49800
O815        O  0.62695781  0.02035423  0.32416481    -0.56100
C816        C  0.69512835  0.02327916  0.28539196     0.84000
O817        O  0.68020111  0.07503737  0.24631495    -0.58000
O818        O  0.62957301  0.07836495  0.28548495    -0.61300
In819      In  0.53435326  0.15502951  0.39808184     1.36900
C820        C  0.98433742  0.10494432  0.37189590     0.76400
O821        O  0.49651724  0.17115833  0.40100218    -0.62000
O822        O  0.54616723  0.20835735  0.39406973    -0.52900
C823        C  0.54995152  0.15405908  0.45151514     0.69100
O824        O  0.52746634  0.12899307  0.43924332    -0.47800
C825        C  0.58244654  0.15098307  0.37069320     0.73800
O826        O  0.98500062  0.10831969  0.39832054    -0.59700
O827        O  0.57091401  0.16885776  0.36201998    -0.49800
O828        O  0.50911910  0.12726799  0.35917742    -0.56100
C829        C  0.51634376  0.20131074  0.39751409     0.84000
O830        O  0.56391556  0.17959955  0.43647375    -0.58000
O831        O  0.57101334  0.13736042  0.39405585    -0.61300
In832      In  0.60293639  0.15240386  0.61992989     1.36900
C833        C  0.59965385  0.10054663  0.64555329     0.76400
O834        O  0.65694674  0.16706200  0.61654663    -0.62000
O835        O  0.64536632  0.20448224  0.62580296    -0.52900
C836        C  0.58831752  0.15241071  0.56630282     0.69100
O837        O  0.58053758  0.12618324  0.57958982    -0.47800
C838        C  0.55099342  0.15232278  0.64475003     0.73800
O839        O  0.60032981  0.10318034  0.61907710    -0.59700
O840        O  0.57955818  0.16612611  0.65566574    -0.49800
O841        O  0.60070932  0.12446040  0.65864910    -0.56100
C842        C  0.66778076  0.19710471  0.62147347     0.84000
O843        O  0.60440566  0.17848847  0.58035463    -0.58000
O844        O  0.54989707  0.14103567  0.62055652    -0.61300
In845      In  0.94531000  0.11136415  0.95361531     1.36900
C846        C  0.99343857  0.10425830  0.97710921     0.76400
O847        O  0.98544430  0.16428989  0.95481356    -0.62000
O848        O  0.93622614  0.15429795  0.96115815    -0.52900
C849        C  0.93046254  0.09934003  0.89930899     0.69100
O850        O  0.95025232  0.09232482  0.91163594    -0.47800
C851        C  0.89430853  0.06009277  0.97863643     0.73800
O852        O  0.99238839  0.10861555  0.95096981    -0.59700
O853        O  0.90987420  0.08799512  0.99021230    -0.49800
O854        O  0.96966395  0.10310032  0.99088245    -0.56100
C855        C  0.96649742  0.17586395  0.95917679     0.84000
O856        O  0.91930268  0.11374397  0.91459999    -0.58000
O857        O  0.90283609  0.05954724  0.95361484    -0.61300
In858      In  0.87530396  0.04781264  0.72954972     1.36900
C859        C  0.87834316  0.50005870  0.70267915     0.76400
O860        O  0.82288924  0.00630565  0.73021696    -0.62000
O861        O  0.83000822  0.05431673  0.72523191    -0.52900
C862        C  0.88866862  0.06201858  0.78405133     0.69100
O863        O  0.88873145  0.03786594  0.77233853    -0.47800
C864        C  0.92866442  0.09598434  0.70398872     0.73800
O865        O  0.88294908  0.50447172  0.72890580    -0.59700
O866        O  0.89967553  0.08942755  0.69706865    -0.49800
O867        O  0.87268202  0.02058846  0.69015921    -0.56100
C868        C  0.80956909  0.02382683  0.72716192     0.84000
O869        O  0.88050751  0.07835119  0.76803193    -0.58000
O870        O  0.92959997  0.07918386  0.72419882    -0.61300
In871      In  0.82826169  0.44756829  0.28457502     1.36900
C872        C  0.87788024  0.49694279  0.31202382     0.76400
O873        O  0.81340589  0.48561370  0.27553497    -0.62000
O874        O  0.77718871  0.44113159  0.29436603    -0.52900
C875        C  0.82551692  0.42937253  0.23118668     0.69100
O876        O  0.85128783  0.45243256  0.24222874    -0.47800
C877        C  0.83458966  0.39976552  0.30954479     0.73800
O878        O  0.87860178  0.49298415  0.28577965    -0.59700
O879        O  0.81276132  0.40689498  0.31722612    -0.49800
O880        O  0.85175649  0.47566696  0.32401647    -0.56100
C881        C  0.78443138  0.46939243  0.28530963     0.84000
O882        O  0.80064905  0.41605558  0.24739139    -0.58000
O883        O  0.85116676  0.41553863  0.28842882    -0.61300
In884      In  0.82671825  0.38211389  0.05989814     1.36900
C885        C  0.87964823  0.38460502  0.03550704     0.76400
O886        O  0.81317628  0.32924460  0.06084440    -0.62000
O887        O  0.77410354  0.33912390  0.05286335    -0.52900
C888        C  0.82421436  0.39260878  0.11474137     0.69100
O889        O  0.84969473  0.39539492  0.10262042    -0.47800
C890        C  0.83223730  0.43654203  0.03561413     0.73800
O891        O  0.87878497  0.39027738  0.06139081    -0.59700
O892        O  0.81488016  0.40839301  0.02479384    -0.49800
O893        O  0.85342762  0.37769285  0.02232660    -0.56100
C894        C  0.78285740  0.31757613  0.05565246     0.84000
O895        O  0.79933158  0.38330445  0.09886476    -0.58000
O896        O  0.84422422  0.43599559  0.05910777    -0.61300
In897      In  0.54120275  0.38193623  0.95551278     1.36900
C898        C  0.99199697  0.38644889  0.98066414     0.76400
O899        O  0.50141022  0.32929739  0.95192900    -0.62000
O900        O  0.54841671  0.33822084  0.96573789    -0.52900
C901        C  0.55584124  0.39304953  0.90089969     0.69100
O902        O  0.53483964  0.39851296  0.91306572    -0.47800
C903        C  0.59252187  0.43466259  0.97911265     0.73800
O904        O  0.99437303  0.38524217  0.95427726    -0.59700
O905        O  0.57969716  0.40636986  0.99011045    -0.49800
O906        O  0.51525359  0.38618753  0.99406347    -0.56100
C907        C  0.51883011  0.31705946  0.95972989     0.84000
O908        O  0.56905441  0.38102385  0.91665921    -0.58000
O909        O  0.58065770  0.43517900  0.95546977    -0.61300
In910      In  0.60126526  0.44320133  0.72955129     1.36900
C911        C  0.59756947  0.49127947  0.70338823     0.76400
O912        O  0.65364363  0.48374589  0.73333632    -0.62000
O913        O  0.64607147  0.43689631  0.72118545    -0.52900
C914        C  0.58943667  0.42733385  0.78376877     0.71500
O915        O  0.58490742  0.44910619  0.77224502    -0.47800
C916        C  0.54751695  0.39503552  0.70482009     0.73800
O917        O  0.59496048  0.48778048  0.72981751    -0.59700
O918        O  0.57626133  0.40517233  0.69480118    -0.49800
O919        O  0.60169739  0.46996571  0.69061325    -0.56100
C920        C  0.66668747  0.46667914  0.72665773     0.84000
O921        O  0.60085262  0.41389124  0.76754099    -0.58000
O922        O  0.54716533  0.40756484  0.72811245    -0.61300
In923      In  0.87284544  0.33749025  0.62078271     1.36900
C924        C  0.87589929  0.38986135  0.64597119     0.76400
O925        O  0.81900590  0.32189941  0.61632967    -0.62000
O926        O  0.83085298  0.28572149  0.62950120    -0.52900
C927        C  0.88613263  0.33534669  0.56669130     0.69100
O928        O  0.89298487  0.36176431  0.57923721    -0.47800
C929        C  0.92516969  0.33885378  0.64542347     0.73800
O930        O  0.87706809  0.38762108  0.61957046    -0.59700
O931        O  0.89643835  0.32367793  0.65599086    -0.49800
O932        O  0.87314936  0.36534026  0.65924999    -0.56100
C933        C  0.80834349  0.29236325  0.62325195     0.84000
O934        O  0.87141067  0.30980803  0.58168224    -0.58000
O935        O  0.92640764  0.35100184  0.62158951    -0.61300
In936      In  0.94646569  0.33789791  0.39877532     1.36900
C937        C  0.99645375  0.38883870  0.37298620     0.76400
O938        O  0.98543352  0.32361891  0.40638257    -0.62000
O939        O  0.93936421  0.28725825  0.38985530    -0.52900
C940        C  0.92761476  0.33450722  0.45211622     0.69100
O941        O  0.95044599  0.36031747  0.44095132    -0.47800
C942        C  0.89785058  0.34215149  0.37203105     0.73800
O943        O  0.99274216  0.38785381  0.39938343    -0.59700
O944        O  0.90849930  0.32345896  0.36349014    -0.49800
O945        O  0.97476569  0.36381306  0.36023105    -0.56100
C946        C  0.96817092  0.29446341  0.39788652     0.84000
O947        O  0.91480703  0.30974917  0.43605037    -0.58000
O948        O  0.91053832  0.35657903  0.39479008    -0.61300
C949        C  0.88168836  0.30520850  0.52173777    -0.14500
C950        C  0.89577348  0.33468394  0.53717553     0.07600
C951        C  0.92032281  0.36362921  0.52454451    -0.14500
C952        C  0.93069449  0.36327776  0.49705019    -0.14500
C953        C  0.91658629  0.33398069  0.48143906     0.07600
C954        C  0.89186817  0.30490957  0.49398733    -0.14500
H955        H  0.86282115  0.28252456  0.53108456     0.11600
H956        H  0.93194164  0.38659588  0.53610290     0.11600
H957        H  0.94978087  0.38602182  0.48799000     0.11600
H958        H  0.88053208  0.28195816  0.48241875     0.11600
C959        C  0.48598266  0.35981870  0.70456623    -0.14500
C960        C  0.51627028  0.37286104  0.68991791     0.07600
C961        C  0.51566369  0.36936761  0.66056983    -0.14500
C962        C  0.98551660  0.35579061  0.64597728    -0.14500
C963        C  0.95548792  0.34505856  0.66058676     0.07600
C964        C  0.95590260  0.34587073  0.69004099    -0.14500
H965        H  0.48565797  0.36224415  0.72714058     0.11600
H966        H  0.53864512  0.37943680  0.64870433     0.11600
H967        H  0.98582628  0.35545972  0.62321773     0.11600
H968        H  0.93319356  0.33811921  0.70180846     0.11600
C969        C  0.58469975  0.39121995  0.85645459    -0.14500
C970        C  0.56457756  0.40109231  0.87084501     0.07600
C971        C  0.55304972  0.41959498  0.85639111    -0.14500
C972        C  0.56151165  0.42826502  0.82827417    -0.14500
C973        C  0.58129102  0.41820225  0.81372252     0.07600
C974        C  0.59270526  0.39942649  0.82800193    -0.14500
H975        H  0.59405066  0.37703573  0.86713313     0.11600
H976        H  0.53766301  0.42769906  0.86691950     0.11600
H977        H  0.55225903  0.44263611  0.81782517     0.11600
H978        H  0.60804730  0.39139416  0.81725089     0.11600
C979        C  0.90881048  0.38126460  0.99240707    -0.14500
C980        C  0.90880776  0.38582144  0.02162269     0.07600
C981        C  0.93677166  0.39141544  0.03724855    -0.14500
C982        C  0.96403396  0.39202663  0.02394458    -0.14500
C983        C  0.96388330  0.38722452  0.99472040     0.07600
C984        C  0.93609186  0.38206919  0.97911071    -0.14500
H985        H  0.88766617  0.37700244  0.97980859     0.11600
H986        H  0.93747761  0.39507849  0.05980566     0.11600
H987        H  0.98514938  0.39611853  0.03650425     0.11600
H988        H  0.93523760  0.37821025  0.95657823     0.11600
C989        C  0.85907403  0.36270964  0.31115560    -0.14500
C990        C  0.84285421  0.37733493  0.32507028     0.07600
C991        C  0.84047590  0.37544905  0.35448933    -0.14500
C992        C  0.85659135  0.36189536  0.36984154    -0.14500
C993        C  0.87467137  0.34919765  0.35598311     0.07600
C994        C  0.87451450  0.34845620  0.32648302    -0.14500
H995        H  0.86139974  0.36397646  0.28848633     0.11600
H996        H  0.82849785  0.38689132  0.36575613     0.11600
H997        H  0.85638879  0.36288226  0.39254916     0.11600
H998        H  0.88853818  0.33916064  0.31523811     0.11600
C999        C  0.79464698  0.39958626  0.18767266    -0.14500
C1000       C  0.82481938  0.41886028  0.20170145     0.07600
C1001       C  0.85462175  0.42838655  0.18721231    -0.14500
C1002       C  0.85425672  0.41905429  0.15920934    -0.14500
C1003       C  0.82413724  0.40060833  0.14488186     0.07600
C1004       C  0.79429312  0.39091494  0.15938358    -0.14500
H1005       H  0.77130623  0.39180934  0.19839791     0.11600
H1006       H  0.87822235  0.44302847  0.19754648     0.11600
H1007       H  0.87766624  0.42693294  0.14855481     0.11600
H1008       H  0.77075915  0.37666900  0.14886564     0.11600
C1009       C  0.87681518  0.44615247  0.70351543    -0.14500
C1010       C  0.87860136  0.47246145  0.68802182     0.07600
C1011       C  0.87976321  0.47168578  0.65851876    -0.14500
C1012       C  0.87928597  0.44500540  0.64478986    -0.14500
C1013       C  0.87725930  0.41854214  0.66030488     0.07600
C1014       C  0.87605399  0.41940584  0.68981464    -0.14500
H1015       H  0.87557740  0.44603880  0.72629757     0.11600
H1016       H  0.88111266  0.49168488  0.64611786     0.11600
H1017       H  0.88026069  0.44497221  0.62201129     0.11600
H1018       H  0.87439817  0.39933769  0.70231737     0.11600
C1019       C  0.75226307  0.47488863  0.72557776    -0.14500
C1020       C  0.77302526  0.00928955  0.72618202     0.07600
C1021       C  0.75847617  0.02933948  0.72638049    -0.14500
C1022       C  0.72395133  0.01533133  0.72641234    -0.14500
C1023       C  0.70318651  0.48097617  0.72579014     0.07600
C1024       C  0.71769656  0.46087602  0.72518930    -0.14500
H1025       H  0.76277664  0.45874993  0.72543625     0.11600
H1026       H  0.77379530  0.05586054  0.72687577     0.11600
H1027       H  0.71344526  0.03147367  0.72689835     0.11600
H1028       H  0.70232733  0.43435516  0.72487872     0.11600
C1029       C  0.95848587  0.22508442  0.95573810    -0.14500
C1030       C  0.97918197  0.21179148  0.96112693     0.07600
C1031       C  0.51288754  0.23337020  0.96688242    -0.14500
C1032       C  0.52571900  0.26750197  0.96707862    -0.14500
C1033       C  0.50522683  0.28087763  0.96110694     0.07600
C1034       C  0.97142584  0.25924502  0.95549571    -0.14500
H1035       H  0.93251132  0.20909372  0.95091513     0.11600
H1036       H  0.52945612  0.22378591  0.97105598     0.11600
H1037       H  0.55183210  0.28346478  0.97136981     0.11600
H1038       H  0.95496894  0.26877828  0.95063256     0.11600
C1039       C  0.87259033  0.02810962  0.02311222    -0.14500
C1040       C  0.87097163  0.02960539  0.99374123     0.07600
C1041       C  0.85166670  0.00027550  0.97872424    -0.14500
C1042       C  0.83649640  0.46979729  0.99257034    -0.14500
C1043       C  0.84064413  0.46813507  0.02165507     0.07600
C1044       C  0.85774901  0.49769418  0.03688987    -0.14500
H1045       H  0.88752036  0.05022459  0.03522430     0.11600
H1046       H  0.85006654  0.00074567  0.95602860     0.11600
H1047       H  0.82356555  0.44749405  0.98025004     0.11600
H1048       H  0.86136160  0.49724815  0.05932829     0.11600
C1049       C  0.90316578  0.10357351  0.85529609    -0.14500
C1050       C  0.92019174  0.09026469  0.86971267     0.07600
C1051       C  0.92604134  0.06703117  0.85599901    -0.14500
C1052       C  0.91495504  0.05720518  0.82844741    -0.14500
C1053       C  0.89845426  0.07096592  0.81381559     0.07600
C1054       C  0.89267608  0.09424659  0.82752795    -0.14500
H1055       H  0.89813853  0.12137211  0.86544668     0.11600
H1056       H  0.93880227  0.05611877  0.86670187     0.11600
H1057       H  0.91979574  0.03923811  0.81842495     0.11600
H1058       H  0.87997029  0.10520350  0.81678330     0.11600
C1059       C  0.72733569  0.21105963  0.62505720    -0.14500
C1060       C  0.70374591  0.22141457  0.62206546     0.07600
C1061       C  0.71487510  0.25515707  0.61950327    -0.14500
C1062       C  0.74882025  0.27806109  0.61991075    -0.14500
C1063       C  0.77242219  0.26781115  0.62338188     0.07600
C1064       C  0.76130716  0.23404329  0.62602619    -0.14500
H1065       H  0.71946155  0.18514147  0.62696055     0.11600
H1066       H  0.69730474  0.26381760  0.61687084     0.11600
H1067       H  0.75661968  0.30390949  0.61759339     0.11600
H1068       H  0.77890920  0.22538479  0.62848899     0.11600
C1069       C  0.99055392  0.13587781  0.64516749    -0.14500
C1070       C  0.52057031  0.14661204  0.65981006     0.07600
C1071       C  0.51996169  0.14641404  0.68927331    -0.14500
C1072       C  0.98978595  0.13266400  0.70377095    -0.14500
C1073       C  0.95956607  0.11931924  0.68912602     0.07600
C1074       C  0.96029539  0.12275020  0.65977751    -0.14500
H1075       H  0.99029811  0.13575654  0.62242632     0.11600
H1076       H  0.54260197  0.15433270  0.70114012     0.11600
H1077       H  0.98991876  0.13035111  0.72638426     0.11600
H1078       H  0.93735224  0.11249457  0.64794614     0.11600
C1079       C  0.59926607  0.04695847  0.64496994    -0.14500
C1080       C  0.59806294  0.07202642  0.66018745     0.07600
C1081       C  0.59580229  0.06991604  0.68966899    -0.14500
C1082       C  0.59514910  0.04339105  0.70369425    -0.14500
C1083       C  0.59671769  0.01850327  0.68852368     0.07600
C1084       C  0.59857809  0.02040075  0.65900553    -0.14500
H1085       H  0.60104549  0.04802891  0.62222265     0.11600
H1086       H  0.59477984  0.08888202  0.70190566     0.11600
H1087       H  0.59380498  0.04256368  0.72645786     0.11600
H1088       H  0.59981211  0.00151643  0.64678286     0.11600
C1089       C  0.97166979  0.21552682  0.39029805    -0.14500
C1090       C  0.50477881  0.22569915  0.39726875     0.07600
C1091       C  0.52593217  0.25877777  0.40434376    -0.14500
C1092       C  0.51401022  0.28110764  0.40468910    -0.14500
C1093       C  0.98085848  0.27089116  0.39752922     0.07600
C1094       C  0.95993562  0.23789369  0.39015956    -0.14500
H1095       H  0.95482514  0.19016335  0.38465564     0.11600
H1096       H  0.55150302  0.26722351  0.41000139     0.11600
H1097       H  0.53077607  0.30643108  0.41048652     0.11600
H1098       H  0.93435455  0.22928308  0.38448098     0.11600
C1099       C  0.58385020  0.18257041  0.49376756    -0.14500
C1100       C  0.55963193  0.15357014  0.48093003     0.07600
C1101       C  0.54513857  0.12406690  0.49628372    -0.14500
C1102       C  0.55469779  0.12362892  0.52403835    -0.14500
C1103       C  0.57876753  0.15266083  0.53687879     0.07600
C1104       C  0.59320072  0.18218139  0.52157817    -0.14500
H1105       H  0.59554038  0.20563718  0.48233199     0.11600
H1106       H  0.52652602  0.10137842  0.48682838     0.11600
H1107       H  0.54304267  0.10059906  0.53553570     0.11600
H1108       H  0.61180500  0.20486243  0.53104297     0.11600
C1109       C  0.92760982  0.05526325  0.37082663    -0.14500
C1110       C  0.95699522  0.07720592  0.35682452     0.07600
C1111       C  0.96025583  0.07243865  0.32806187    -0.14500
C1112       C  0.93467768  0.04617802  0.31358843    -0.14500
C1113       C  0.90521103  0.02431487  0.32750060     0.07600
C1114       C  0.90191869  0.02904894  0.35629435    -0.14500
H1115       H  0.92441468  0.05846141  0.39297823     0.11600
H1116       H  0.98268210  0.08893190  0.31676283     0.11600
H1117       H  0.93794484  0.04304412  0.29144020     0.11600
H1118       H  0.87943220  0.01259847  0.36753212     0.11600
C1119       C  0.70556893  0.47552268  0.28605246    -0.14500
C1120       C  0.71818944  0.00977247  0.28621679     0.07600
C1121       C  0.75271498  0.03052186  0.28669785    -0.14500
C1122       C  0.77406777  0.01728858  0.28636232    -0.14500
C1123       C  0.76142799  0.48301479  0.28611282     0.07600
C1124       C  0.72690278  0.46229280  0.28627544    -0.14500
H1125       H  0.67903609  0.45887040  0.28587429     0.11600
H1126       H  0.76319824  0.05697262  0.28683072     0.11600
H1127       H  0.80059954  0.03391646  0.28647259     0.11600
H1128       H  0.71640657  0.43584451  0.28605808     0.11600
C1129       C  0.63984287  0.11836497  0.35184941    -0.14500
C1130       C  0.63662314  0.11595060  0.32249180     0.07600
C1131       C  0.61951114  0.12980595  0.30891357    -0.14500
C1132       C  0.60420238  0.14395988  0.32460193    -0.14500
C1133       C  0.60515336  0.14388632  0.35409499     0.07600
C1134       C  0.62396032  0.13187038  0.36755386    -0.14500
H1135       H  0.65247105  0.10746993  0.36287777     0.11600
H1136       H  0.61648224  0.12808162  0.28631117     0.11600
H1137       H  0.58951954  0.15271713  0.31372105     0.11600
H1138       H  0.62495659  0.13139833  0.39024392     0.11600
C1139       C  0.54819260  0.44419150  0.37240587    -0.14500
C1140       C  0.52370320  0.41680841  0.35787551     0.07600
C1141       C  0.52521161  0.41621938  0.32837259    -0.14500
C1142       C  0.55053852  0.44247138  0.31366549    -0.14500
C1143       C  0.57503219  0.46984719  0.32808829     0.07600
C1144       C  0.57370894  0.47048666  0.35763958    -0.14500
H1145       H  0.54764988  0.44525977  0.39516036     0.11600
H1146       H  0.50674840  0.39543965  0.31660453     0.11600
H1147       H  0.55106347  0.44120530  0.29091980     0.11600
H1148       H  0.59234331  0.49128817  0.36929393     0.11600
C1149       C  0.75323688  0.22649620  0.04746897    -0.14500
C1150       C  0.71933805  0.21207077  0.05368174     0.07600
C1151       C  0.70591003  0.23283592  0.05874153    -0.14500
C1152       C  0.72611112  0.26718866  0.05840637    -0.14500
C1153       C  0.76026341  0.28150713  0.05333525     0.07600
C1154       C  0.77346144  0.26076910  0.04747683    -0.14500
H1155       H  0.76429061  0.21125487  0.04326452     0.11600
H1156       H  0.67975652  0.22247109  0.06337509     0.11600
H1157       H  0.71524718  0.28250588  0.06301601     0.11600
H1158       H  0.79970694  0.27114123  0.04321292     0.11600
C1159       C  0.61967982  0.46630949  0.02295340    -0.14500
C1160       C  0.61683781  0.46537721  0.99352441     0.07600
C1161       C  0.63274070  0.49519669  0.97850148    -0.14500
C1162       C  0.64839355  0.02537228  0.99270490    -0.14500
C1163       C  0.64797487  0.02629650  0.02218389     0.07600
C1164       C  0.63476887  0.99651453  0.03717765    -0.14500
H1165       H  0.60773267  0.44376866  0.03509804     0.11600
H1166       H  0.63110295  0.49526048  0.95579197     0.11600
H1167       H  0.65817770  0.04791438  0.98063505     0.11600
H1168       H  0.63420441  0.99655211  0.05994783     0.11600
C1169       C  0.68896411  0.10049999  0.15870942    -0.14500
C1170       C  0.65945763  0.08984538  0.14354325     0.07600
C1171       C  0.62902699  0.06925559  0.15679762    -0.14500
C1172       C  0.62797348  0.05963942  0.18469763    -0.14500
C1173       C  0.65732372  0.07072824  0.20009428     0.07600
C1174       C  0.68788070  0.09125698  0.18689791    -0.14500
H1175       H  0.71276520  0.11618044  0.14887705     0.11600
H1176       H  0.60591643  0.06033868  0.14550606     0.11600
H1177       H  0.60410520  0.04382077  0.19432816     0.11600
H1178       H  0.71088741  0.10003656  0.19833781     0.11600
C1179       C  0.57566607  0.10743326  0.98904540    -0.14500
C1180       C  0.57524144  0.10321876  0.01835304     0.07600
C1181       C  0.54683059  0.09711828  0.03357792    -0.14500
C1182       C  0.51982345  0.09638662  0.01996535    -0.14500
C1183       C  0.52072376  0.10185196  0.99082828     0.07600
C1184       C  0.54863064  0.10675384  0.97541185    -0.14500
H1185       H  0.59714318  0.11190880  0.97675714     0.11600
H1186       H  0.54566449  0.09341582  0.05615101     0.11600
H1187       H  0.49852080  0.09225784  0.03234948     0.11600
H1188       H  0.54991263  0.11087597  0.95290301     0.11600
In1189     In  0.65715103  0.61056469  0.05952051     1.36900
C1190       C  0.60445648  0.60575556  0.03305313     0.76400
O1191       O  0.66860164  0.66263245  0.06445743    -0.62000
O1192       O  0.70725726  0.65525916  0.04901779    -0.52900
C1193       C  0.65970599  0.59908856  0.11382865     0.69100
O1194       O  0.63356149  0.59395737  0.10145701    -0.47800
C1195       C  0.65476808  0.55700159  0.03675034     0.73800
O1196       O  0.60596912  0.60423724  0.05948107    -0.59700
O1197       O  0.67377728  0.58559535  0.02729268    -0.49800
O1198       O  0.63005718  0.60988954  0.02024243    -0.56100
C1199       C  0.69800026  0.67571497  0.05566382     0.84000
O1200       O  0.68539116  0.61160250  0.09852755    -0.58000
O1201       O  0.63929312  0.55640602  0.05866610    -0.61300
In1202     In  0.65166539  0.54530412  0.28373885     1.36900
C1203       C  0.60211352  0.99716193  0.31227691     0.76400
O1204       O  0.66578962  0.50646932  0.27666607    -0.62000
O1205       O  0.70270774  0.55202859  0.29329901    -0.52900
C1206       C  0.65567276  0.56125577  0.22990271     0.69100
O1207       O  0.62934530  0.53903915  0.24110569    -0.47800
C1208       C  0.64536961  0.59384376  0.30700356     0.73800
O1209       O  0.60252817  0.99889810  0.28572333    -0.59700
O1210       O  0.66670888  0.58642858  0.31545061    -0.49800
O1211       O  0.62696618  0.52034281  0.32416535    -0.56100
C1212       C  0.69512833  0.52327911  0.28538837     0.84000
O1213       O  0.68019295  0.57503276  0.24631291    -0.58000
O1214       O  0.62956130  0.57835292  0.28549485    -0.61300
In1215     In  0.53435059  0.65502731  0.39807438     1.36900
C1216       C  0.98433768  0.60494862  0.37189144     0.76400
O1217       O  0.49651207  0.67115401  0.40099700    -0.62000
O1218       O  0.54615924  0.70835087  0.39404675    -0.52900
C1219       C  0.54995626  0.65406664  0.45150792     0.69100
O1220       O  0.52747192  0.62899811  0.43923827    -0.47800
C1221       C  0.58244706  0.65098392  0.37068792     0.73800
O1222       O  0.98500240  0.60831795  0.39831682    -0.59700
O1223       O  0.57091413  0.66885827  0.36201510    -0.49800
O1224       O  0.50911343  0.62726548  0.35917175    -0.56100
C1225       C  0.51633687  0.70130494  0.39749726     0.84000
O1226       O  0.56391447  0.67960619  0.43646491    -0.58000
O1227       O  0.57101032  0.63735694  0.39404844    -0.61300
In1228     In  0.60293722  0.65240819  0.61992770     1.36900
C1229       C  0.59965584  0.60054932  0.64554936     0.76400
O1230       O  0.65694748  0.66706503  0.61654771    -0.62000
O1231       O  0.64536746  0.70448588  0.62580413    -0.52900
C1232       C  0.58832608  0.65242119  0.56629726     0.69100
O1233       O  0.58053167  0.62619204  0.57958721    -0.47800
C1234       C  0.55099343  0.65232455  0.64475138     0.73800
O1235       O  0.60032419  0.60318065  0.61907309    -0.59700
O1236       O  0.57955696  0.66612103  0.65566891    -0.49800
O1237       O  0.60071755  0.62446554  0.65864564    -0.56100
C1238       C  0.66778171  0.69710769  0.62147525     0.84000
O1239       O  0.60442494  0.67849827  0.58034781    -0.58000
O1240       O  0.54989939  0.64104862  0.62055348    -0.61300
In1241     In  0.94531717  0.61136555  0.95361881     1.36900
C1242       C  0.99344393  0.60425865  0.97711329     0.76400
O1243       O  0.98545001  0.66429204  0.95480076    -0.62000
O1244       O  0.93623534  0.65429753  0.96117704    -0.52900
C1245       C  0.93045868  0.59933095  0.89931566     0.69100
O1246       O  0.95025511  0.59232300  0.91164015    -0.47800
C1247       C  0.89431771  0.56009133  0.97863483     0.73800
O1248       O  0.99239942  0.60862565  0.95097504    -0.59700
O1249       O  0.90987929  0.58799257  0.99021358    -0.49800
O1250       O  0.96966524  0.60309315  0.99088545    -0.56100
C1251       C  0.96650478  0.67586450  0.95918032     0.84000
O1252       O  0.91929848  0.61373433  0.91460716    -0.58000
O1253       O  0.90284991  0.55954867  0.95361437    -0.61300
In1254     In  0.87530830  0.54780702  0.72955348     1.36900
C1255       C  0.87832759  0.00005764  0.70267977     0.76400
O1256       O  0.82289223  0.50630264  0.73022671    -0.62000
O1257       O  0.83001337  0.55431280  0.72522799    -0.52900
C1258       C  0.88866546  0.56200589  0.78405786     0.69100
O1259       O  0.88871961  0.53784853  0.77234592    -0.47800
C1260       C  0.92867014  0.59598162  0.70399719     0.73800
O1261       O  0.88292431  0.00446537  0.72890777    -0.59700
O1262       O  0.89968192  0.58942756  0.69707773    -0.49800
O1263       O  0.87268047  0.52057986  0.69016193    -0.56100
C1264       C  0.80957288  0.52382397  0.72716577     0.84000
O1265       O  0.88051763  0.57834697  0.76803603    -0.58000
O1266       O  0.92960446  0.57917795  0.72420510    -0.61300
In1267     In  0.82826310  0.94757245  0.28457336     1.36900
C1268       C  0.87788397  0.99693901  0.31202564     0.76400
O1269       O  0.81341236  0.98562162  0.27553266    -0.62000
O1270       O  0.77719197  0.94113839  0.29436102    -0.52900
C1271       C  0.82551500  0.92937409  0.23118672     0.69100
O1272       O  0.85128954  0.95242861  0.24222953    -0.47800
C1273       C  0.83458996  0.89977062  0.30954199     0.73800
O1274       O  0.87860046  0.99299050  0.28577929    -0.59700
O1275       O  0.81276696  0.90690557  0.31722824    -0.49800
O1276       O  0.85176351  0.97565769  0.32401852    -0.56100
C1277       C  0.78443668  0.96939984  0.28530494     0.84000
O1278       O  0.80064597  0.91606234  0.24739053    -0.58000
O1279       O  0.85115960  0.91553571  0.28842022    -0.61300
In1280     In  0.82670983  0.88211554  0.05990164     1.36900
C1281       C  0.87963479  0.88460784  0.03550059     0.76400
O1282       O  0.81317096  0.82924728  0.06085836    -0.62000
O1283       O  0.77409585  0.83912179  0.05287230    -0.52900
C1284       C  0.82420745  0.89261197  0.11474257     0.69100
O1285       O  0.84968656  0.89539275  0.10262311    -0.47800
C1286       C  0.83222976  0.93654662  0.03562433     0.73800
O1287       O  0.87877745  0.89028485  0.06138416    -0.59700
O1288       O  0.81486751  0.90839802  0.02480427    -0.49800
O1289       O  0.85340957  0.87768896  0.02232457    -0.56100
C1290       C  0.78285160  0.81757587  0.05566648     0.84000
O1291       O  0.79932614  0.88331312  0.09886530    -0.58000
O1292       O  0.84422154  0.93599840  0.05911517    -0.61300
In1293     In  0.54119853  0.88193566  0.95551325     1.36900
C1294       C  0.99198050  0.88644481  0.98065766     0.76400
O1295       O  0.50141206  0.82929721  0.95190985    -0.62000
O1296       O  0.54840795  0.83822050  0.96575070    -0.52900
C1297       C  0.55584841  0.89305037  0.90090361     0.69100
O1298       O  0.53485264  0.89852346  0.91306823    -0.47800
C1299       C  0.59251378  0.93466632  0.97911224     0.73800
O1300       O  0.99435106  0.88521938  0.95427179    -0.59700
O1301       O  0.57969153  0.90637441  0.99011145    -0.49800
O1302       O  0.51523890  0.88617701  0.99406031    -0.56100
C1303       C  0.51882647  0.81705911  0.95972650     0.84000
O1304       O  0.56905172  0.88101458  0.91666333    -0.58000
O1305       O  0.58064851  0.93518002  0.95546926    -0.61300
In1306     In  0.60126516  0.94320053  0.72955592     1.36900
C1307       C  0.59756791  0.99127800  0.70339330     0.76400
O1308       O  0.65364302  0.98374320  0.73334086    -0.62000
O1309       O  0.64606981  0.93689702  0.72117680    -0.52900
C1310       C  0.58944238  0.92732966  0.78377299     0.71500
O1311       O  0.58492869  0.94911434  0.77225469    -0.47800
C1312       C  0.54751200  0.89503746  0.70482953     0.73800
O1313       O  0.59496007  0.98777973  0.72982265    -0.59700
O1314       O  0.57625615  0.90516219  0.69481459    -0.49800
O1315       O  0.60169501  0.96996371  0.69061834    -0.56100
C1316       C  0.66668605  0.96667850  0.72665301     0.84000
O1317       O  0.60084096  0.91387549  0.76753990    -0.58000
O1318       O  0.54716164  0.90758109  0.72811485    -0.61300
In1319     In  0.87284528  0.83749824  0.62078347     1.36900
C1320       C  0.87588869  0.88986217  0.64597544     0.76400
O1321       O  0.81900524  0.82190410  0.61632453    -0.62000
O1322       O  0.83085356  0.78573051  0.62950703    -0.52900
C1323       C  0.88613674  0.83535589  0.56669403     0.69100
O1324       O  0.89299634  0.86177465  0.57924143    -0.47800
C1325       C  0.92517368  0.83886312  0.64541631     0.73800
O1326       O  0.87705055  0.88762068  0.61957432    -0.59700
O1327       O  0.89644224  0.82368023  0.65598310    -0.49800
O1328       O  0.87315316  0.86534648  0.65925357    -0.56100
C1329       C  0.80834355  0.79236952  0.62325204     0.84000
O1330       O  0.87140456  0.80981602  0.58168223    -0.58000
O1331       O  0.92641073  0.85101997  0.62158669    -0.61300
In1332     In  0.94646757  0.83790061  0.39877609     1.36900
C1333       C  0.99645941  0.88884039  0.37298634     0.76400
O1334       O  0.98543533  0.82361837  0.40637216    -0.62000
O1335       O  0.93935509  0.78725257  0.38986776    -0.52900
C1336       C  0.92761638  0.83451380  0.45211852     0.69100
O1337       O  0.95044825  0.86032287  0.44095259    -0.47800
C1338       C  0.89785838  0.84216168  0.37202769     0.73800
O1339       O  0.99275023  0.88785381  0.39938408    -0.59700
O1340       O  0.90850746  0.82346991  0.36348538    -0.49800
O1341       O  0.97476717  0.86381719  0.36023125    -0.56100
C1342       C  0.96816585  0.79445868  0.39788799     0.84000
O1343       O  0.91480733  0.80975556  0.43605300    -0.58000
O1344       O  0.91054240  0.85658376  0.39478947    -0.61300
C1345       C  0.88168544  0.80521899  0.52173894    -0.14500
C1346       C  0.89577970  0.83469252  0.53717945     0.07600
C1347       C  0.92033867  0.86363479  0.52455198    -0.14500
C1348       C  0.93070836  0.86328282  0.49705697    -0.14500
C1349       C  0.91658965  0.83398801  0.48144224     0.07600
C1350       C  0.89186409  0.80491943  0.49398831    -0.14500
H1351       H  0.86281138  0.78253706  0.53108360     0.11600
H1352       H  0.93196556  0.88659932  0.53611324     0.11600
H1353       H  0.94980154  0.88602449  0.48799920     0.11600
H1354       H  0.88052057  0.78196945  0.48241747     0.11600
C1355       C  0.48597702  0.85982613  0.70457650    -0.14500
C1356       C  0.51626500  0.87285756  0.68993020     0.07600
C1357       C  0.51565933  0.86934483  0.66058416    -0.14500
C1358       C  0.98552257  0.85580586  0.64596821    -0.14500
C1359       C  0.95549222  0.84506580  0.66057728     0.07600
C1360       C  0.95590430  0.84586873  0.69003154    -0.14500
H1361       H  0.48565161  0.86226485  0.72714925     0.11600
H1362       H  0.53864114  0.87940336  0.64872036     0.11600
H1363       H  0.98583422  0.85548318  0.62320840     0.11600
H1364       H  0.93319406  0.83811220  0.70179855     0.11600
C1365       C  0.58469593  0.89120610  0.85645637    -0.14500
C1366       C  0.56458741  0.90109317  0.87084977     0.07600
C1367       C  0.55307180  0.91960785  0.85639871    -0.14500
C1368       C  0.56153172  0.92827475  0.82828140    -0.14500
C1369       C  0.58129799  0.91819831  0.81372669     0.07600
C1370       C  0.59270011  0.89941055  0.82800315    -0.14500
H1371       H  0.59403624  0.87701145  0.86713275     0.11600
H1372       H  0.53769526  0.92772280  0.86692927     0.11600
H1373       H  0.55228759  0.94265433  0.81783446     0.11600
H1374       H  0.60803135  0.89136698  0.81724927     0.11600
C1375       C  0.90879305  0.88126291  0.99239798    -0.14500
C1376       C  0.90879373  0.88582638  0.02161303     0.07600
C1377       C  0.93676089  0.89142779  0.03723725    -0.14500
C1378       C  0.96402199  0.89203710  0.02393345    -0.14500
C1379       C  0.96386735  0.88722500  0.99471073     0.07600
C1380       C  0.93607366  0.88206478  0.97910148    -0.14500
H1381       H  0.88764653  0.87699613  0.97980072     0.11600
H1382       H  0.93747006  0.89509696  0.05979358     0.11600
H1383       H  0.98513921  0.89613387  0.03649271     0.11600
H1384       H  0.93521684  0.87819940  0.95656986     0.11600
C1385       C  0.85906908  0.86270991  0.31115348    -0.14500
C1386       C  0.84285835  0.87734408  0.32506889     0.07600
C1387       C  0.84049327  0.87547131  0.35448866    -0.14500
C1388       C  0.85661145  0.86192022  0.36983995    -0.14500
C1389       C  0.87468081  0.84921135  0.35598057     0.07600
C1390       C  0.87451189  0.84845823  0.32648046    -0.14500
H1391       H  0.86138497  0.86396726  0.28848341     0.11600
H1392       H  0.82852304  0.88692118  0.36575584     0.11600
H1393       H  0.85641830  0.86291659  0.39254740     0.11600
H1394       H  0.88852671  0.83915357  0.31523456     0.11600
C1395       C  0.79464136  0.89960151  0.18767005    -0.14500
C1396       C  0.82481474  0.91886249  0.20170145     0.07600
C1397       C  0.85461607  0.92837645  0.18721515    -0.14500
C1398       C  0.85424948  0.91904413  0.15921241    -0.14500
C1399       C  0.82412993  0.90061110  0.14488239     0.07600
C1400       C  0.79428638  0.89093035  0.15938092    -0.14500
H1401       H  0.77130148  0.89183460  0.19839336     0.11600
H1402       H  0.87821699  0.94300804  0.19755159     0.11600
H1403       H  0.87765835  0.92691234  0.14856022     0.11600
H1404       H  0.77075226  0.87669434  0.14886066     0.11600
C1405       C  0.87674638  0.94612742  0.70351769    -0.14500
C1406       C  0.87857757  0.97245612  0.68802418     0.07600
C1407       C  0.87978001  0.97169832  0.65852251    -0.14500
C1408       C  0.87930563  0.94501885  0.64479497    -0.14500
C1409       C  0.87724012  0.91853854  0.66030956     0.07600
C1410       C  0.87598776  0.91938157  0.68981787    -0.14500
H1411       H  0.87547314  0.94599899  0.72629835     0.11600
H1412       H  0.88116254  0.99171222  0.64612192     0.11600
H1413       H  0.88031616  0.94500124  0.62201749     0.11600
H1414       H  0.87429733  0.89929816  0.70232003     0.11600
C1415       C  0.75226172  0.97489084  0.72554344    -0.14500
C1416       C  0.77302836  0.50928785  0.72618871     0.07600
C1417       C  0.75848007  0.52933896  0.72636227    -0.14500
C1418       C  0.72395482  0.51533177  0.72639510    -0.14500
C1419       C  0.70318447  0.98097636  0.72578113     0.07600
C1420       C  0.71769528  0.96087751  0.72515280    -0.14500
H1421       H  0.76277661  0.95875334  0.72538184     0.11600
H1422       H  0.77380021  0.55586057  0.72683576     0.11600
H1423       H  0.71344934  0.53147526  0.72685954     0.11600
H1424       H  0.70232689  0.93435702  0.72482041     0.11600
C1425       C  0.95848927  0.72508111  0.95574308    -0.14500
C1426       C  0.97918803  0.71179135  0.96113114     0.07600
C1427       C  0.51288033  0.73336894  0.96689389    -0.14500
C1428       C  0.52571223  0.76750099  0.96708654    -0.14500
C1429       C  0.50522255  0.78087689  0.96110482     0.07600
C1430       C  0.97142563  0.75924081  0.95550160    -0.14500
H1431       H  0.93251524  0.70908844  0.95091979     0.11600
H1432       H  0.52944746  0.72378457  0.97107474     0.11600
H1433       H  0.55182417  0.78346398  0.97138271     0.11600
H1434       H  0.95496649  0.76877145  0.95063855     0.11600
C1435       C  0.87258528  0.52810374  0.02310620    -0.14500
C1436       C  0.87097922  0.52960166  0.99373462     0.07600
C1437       C  0.85168621  0.50027244  0.97871320    -0.14500
C1438       C  0.83647561  0.96980181  0.99258419    -0.14500
C1439       C  0.84063732  0.96814094  0.02166679     0.07600
C1440       C  0.85775601  0.99770116  0.03689812    -0.14500
H1441       H  0.88750632  0.55021840  0.03522152     0.11600
H1442       H  0.85009581  0.50074470  0.95601687     0.11600
H1443       H  0.82353315  0.94749774  0.98026662     0.11600
H1444       H  0.86138016  0.99725659  0.05933498     0.11600
C1445       C  0.90315928  0.60356003  0.85530307    -0.14500
C1446       C  0.92018238  0.59024939  0.86972126     0.07600
C1447       C  0.92602765  0.56701171  0.85600990    -0.14500
C1448       C  0.91494182  0.55718517  0.82845811    -0.14500
C1449       C  0.89844641  0.57094984  0.81382372     0.07600
C1450       C  0.89267116  0.59423333  0.82753458    -0.14500
H1451       H  0.89813550  0.62136186  0.86545193     0.11600
H1452       H  0.93878637  0.55609789  0.86671421     0.11600
H1453       H  0.91978050  0.53921608  0.81843687     0.11600
H1454       H  0.87996975  0.60519371  0.81678796     0.11600
C1455       C  0.72733703  0.71106438  0.62506961    -0.14500
C1456       C  0.70374685  0.72141734  0.62206691     0.07600
C1457       C  0.71487545  0.75515825  0.61949051    -0.14500
C1458       C  0.74882020  0.77806308  0.61989654    -0.14500
C1459       C  0.77242257  0.76781600  0.62338117     0.07600
C1460       C  0.76130833  0.73404938  0.62603783    -0.14500
H1461       H  0.71946324  0.68514706  0.62698236     0.11600
H1462       H  0.69730480  0.76381666  0.61684744     0.11600
H1463       H  0.75661890  0.80391006  0.61756756     0.11600
H1464       H  0.77891094  0.72539285  0.62850986     0.11600
C1465       C  0.99055748  0.63586923  0.64517531    -0.14500
C1466       C  0.52056947  0.64660968  0.65981318     0.07600
C1467       C  0.51996190  0.64641152  0.68927662    -0.14500
C1468       C  0.98979231  0.63266152  0.70377904    -0.14500
C1469       C  0.95957186  0.61931563  0.68913471     0.07600
C1470       C  0.96029986  0.62274273  0.65978603    -0.14500
H1471       H  0.99030046  0.63574513  0.62243415     0.11600
H1472       H  0.54260250  0.65433009  0.70114277     0.11600
H1473       H  0.98992581  0.63035018  0.72639260     0.11600
H1474       H  0.93735624  0.61248488  0.64795529     0.11600
C1475       C  0.59924293  0.54694833  0.64496445    -0.14500
C1476       C  0.59806630  0.57202938  0.66018343     0.07600
C1477       C  0.59583214  0.56993173  0.68966642    -0.14500
C1478       C  0.59517845  0.54340641  0.70369129    -0.14500
C1479       C  0.59671959  0.51850506  0.68851906     0.07600
C1480       C  0.59855341  0.52038956  0.65899975    -0.14500
H1481       H  0.60100136  0.54800858  0.62221599     0.11600
H1482       H  0.59483107  0.58890814  0.70190458     0.11600
H1483       H  0.59385600  0.54258951  0.72645579     0.11600
H1484       H  0.59976489  0.50149385  0.64677584     0.11600
C1485       C  0.97166096  0.71551669  0.39031033    -0.14500
C1486       C  0.50477265  0.72569365  0.39724859     0.07600
C1487       C  0.52592623  0.75877123  0.40432648    -0.14500
C1488       C  0.51400493  0.78110136  0.40467471    -0.14500
C1489       C  0.98085163  0.77088407  0.39753173     0.07600
C1490       C  0.95992640  0.73788390  0.39017054    -0.14500
H1491       H  0.95481489  0.69015162  0.38467380     0.11600
H1492       H  0.55149610  0.76721536  0.40998576     0.11600
H1493       H  0.53077082  0.80642377  0.41047564     0.11600
H1494       H  0.93434361  0.72927167  0.38449721     0.11600
C1495       C  0.58386741  0.68257927  0.49375625    -0.14500
C1496       C  0.55964168  0.65358026  0.48092206     0.07600
C1497       C  0.54514486  0.62407899  0.49627844    -0.14500
C1498       C  0.55470457  0.62364199  0.52403296    -0.14500
C1499       C  0.57877893  0.65267272  0.53687166     0.07600
C1500       C  0.59321870  0.68219122  0.52156739    -0.14500
H1501       H  0.59556228  0.70564407  0.48231780     0.11600
H1502       H  0.52652810  0.60139102  0.48682551     0.11600
H1503       H  0.54304559  0.60061320  0.53553194     0.11600
H1504       H  0.61182817  0.70487137  0.53103000     0.11600
C1505       C  0.92760439  0.55527712  0.37081997    -0.14500
C1506       C  0.95699320  0.57721354  0.35681883     0.07600
C1507       C  0.96025551  0.57244069  0.32805772    -0.14500
C1508       C  0.93467600  0.54617977  0.31358531    -0.14500
C1509       C  0.90520628  0.52432241  0.32749673     0.07600
C1510       C  0.90191181  0.52906314  0.35628865    -0.14500
H1511       H  0.92440821  0.55847924  0.39297056     0.11600
H1512       H  0.98268494  0.58892838  0.31675977     0.11600
H1513       H  0.93794525  0.54304001  0.29143861     0.11600
H1514       H  0.87942353  0.51261690  0.36752611     0.11600
C1515       C  0.70557297  0.97552492  0.28603091    -0.14500
C1516       C  0.71818784  0.50977082  0.28621670     0.07600
C1517       C  0.75271378  0.53051859  0.28668049    -0.14500
C1518       C  0.77406436  0.51728280  0.28634801    -0.14500
C1519       C  0.76143314  0.98302120  0.28610689     0.07600
C1520       C  0.72690846  0.96229723  0.28625071    -0.14500
H1521       H  0.67904065  0.95887105  0.28583842     0.11600
H1522       H  0.76319881  0.55696976  0.28679654     0.11600
H1523       H  0.80059650  0.53390986  0.28644343     0.11600
H1524       H  0.71641434  0.93584952  0.28601696     0.11600
C1525       C  0.63985798  0.61838194  0.35184712    -0.14500
C1526       C  0.63662976  0.61595662  0.32249034     0.07600
C1527       C  0.61951228  0.62980549  0.30891105    -0.14500
C1528       C  0.60420195  0.64395870  0.32459798    -0.14500
C1529       C  0.60515854  0.64389275  0.35409085     0.07600
C1530       C  0.62397497  0.63188810  0.36755051    -0.14500
H1531       H  0.65249157  0.60749296  0.36287632     0.11600
H1532       H  0.61647798  0.62807398  0.28630919     0.11600
H1533       H  0.58951229  0.65270751  0.31371670     0.11600
H1534       H  0.62497660  0.63142340  0.39024057     0.11600
C1535       C  0.54820055  0.94419147  0.37240782    -0.14500
C1536       C  0.52370301  0.91681451  0.35787685     0.07600
C1537       C  0.52520102  0.91623314  0.32837317    -0.14500
C1538       C  0.55052549  0.94248585  0.31366547    -0.14500
C1539       C  0.57502873  0.96985453  0.32808848     0.07600
C1540       C  0.57371565  0.97048712  0.35764077    -0.14500
H1541       H  0.54766577  0.94525388  0.39516301     0.11600
H1542       H  0.50673043  0.89545856  0.31660449     0.11600
H1543       H  0.55104113  0.94122571  0.29091896     0.11600
H1544       H  0.59235774  0.99128313  0.36929541     0.11600
C1545       C  0.75323470  0.72649594  0.04747684    -0.14500
C1546       C  0.71933440  0.71206814  0.05368528     0.07600
C1547       C  0.70590616  0.73283227  0.05875013    -0.14500
C1548       C  0.72610708  0.76718526  0.05842226    -0.14500
C1549       C  0.76025968  0.78150581  0.05335180     0.07600
C1550       C  0.77345899  0.76076930  0.04749114    -0.14500
H1551       H  0.76428928  0.71125604  0.04326957     0.11600
H1552       H  0.67975209  0.72246627  0.06338217     0.11600
H1553       H  0.71524227  0.78250093  0.06303486     0.11600
H1554       H  0.79970504  0.77114303  0.04322838     0.11600
C1555       C  0.61968220  0.96631691  0.02294948    -0.14500
C1556       C  0.61683013  0.96538273  0.99352127     0.07600
C1557       C  0.63272583  0.99520133  0.97849659    -0.14500
C1558       C  0.64840536  0.52536678  0.99271159    -0.14500
C1559       C  0.64797584  0.52628934  0.02219053     0.07600
C1560       C  0.63476244  0.49650610  0.03718318    -0.14500
H1561       H  0.60774071  0.94377681  0.03509539     0.11600
H1562       H  0.63108014  0.99526361  0.95578766     0.11600
H1563       H  0.65819592  0.54790975  0.98064231     0.11600
H1564       H  0.63418936  0.49654188  0.05995319     0.11600
C1565       C  0.68895046  0.60047393  0.15870477    -0.14500
C1566       C  0.65944279  0.58985309  0.14354885     0.07600
C1567       C  0.62900940  0.56929659  0.15681343    -0.14500
C1568       C  0.62795553  0.55967646  0.18471245    -0.14500
C1569       C  0.65730865  0.57072958  0.20009740     0.07600
C1570       C  0.68786722  0.59122794  0.18689187    -0.14500
H1571       H  0.71275310  0.61612757  0.14886456     0.11600
H1572       H  0.60589722  0.56040705  0.14553038     0.11600
H1573       H  0.60408599  0.54388295  0.19435135     0.11600
H1574       H  0.71087585  0.59997935  0.19832313     0.11600
C1575       C  0.57565245  0.60741296  0.98905087    -0.14500
C1576       C  0.57522717  0.60319451  0.01835780     0.07600
C1577       C  0.54681454  0.59708846  0.03358290    -0.14500
C1578       C  0.51980813  0.59636014  0.01997137    -0.14500
C1579       C  0.52071084  0.60183312  0.99083530     0.07600
C1580       C  0.54861786  0.60673618  0.97541846    -0.14500
H1581       H  0.59713054  0.61189180  0.97676239     0.11600
H1582       H  0.54564727  0.59338083  0.05615530     0.11600
H1583       H  0.49850463  0.59222874  0.03235561     0.11600
H1584       H  0.54990125  0.61086267  0.95291035     0.11600
loop_ 
_geom_bond_atom_site_label_1 
_geom_bond_atom_site_label_2 
_geom_bond_distance 
_geom_bond_site_symmetry_2 
_ccdc_geom_bond_type 
In1           O3   2.235       .  S
In1           O4   2.284       .  S
In1          O12   2.260       .  S
In1           O6   2.220       .  S
In1           O8   2.245       .  S
In1           O9   2.280       .  S
In1          O10   2.245       .  S
In1          O13   2.244       .  S
C2            O8   1.263       .  A
C2           O10   1.261       .  A
C2          C388   1.479       .  S
O3           C11   1.259       .  A
O4           C11   1.268       .  A
C5           O12   1.265       .  A
C5            O6   1.262       .  A
C5          C378   1.476       .  S
C7            O9   1.266       .  A
C7           O13   1.257       .  A
C7          C371   1.482       .  S
C11         C358   1.489       .  S
In14         O16   2.243       .  S
In14         O17   2.278       .  S
In14         O25   2.242       .  S
In14         O19   2.231       .  S
In14         O22   2.267       .  S
In14         O23   2.246       .  S
In14         O26   2.242       .  S
In14        O417   2.242   1_545  S
C15          O21   1.265       .  A
C15         O419   1.262       .  A
C15         C351   1.479       .  S
O16          C24   1.260       .  A
O17          C24   1.268       .  A
C18          O25   1.264       .  A
C18          O19   1.265       .  A
C18         C381   1.476       .  S
C20          O22   1.267       .  A
C20          O26   1.259       .  A
C20         C338   1.481       .  S
O21        In410   2.242       .  S
O23         C411   1.262   1_545  A
C24         C328   1.490       .  S
In27         O29   2.234   1_455  S
In27         O30   2.284       .  S
In27         O38   2.233       .  S
In27         O32   2.243       .  S
In27         O35   2.268       .  S
In27         O36   2.232       .  S
In27         O39   2.239       .  S
In27        O826   2.252   1_455  S
C28          O34   1.265       .  A
C28         O828   1.261       .  A
C28         C318   1.477       .  S
O29          C37   1.257   1_655  A
O30          C37   1.265       .  A
C31          O38   1.262       .  A
C31          O32   1.264       .  A
C31         C308   1.474       .  S
C33          O35   1.266       .  A
C33          O39   1.259       .  A
C33         C341   1.479       .  S
O34        In819   2.252       .  S
O36         C820   1.261   1_455  A
C37         C298   1.483       .  S
In40         O42   2.254       .  S
In40         O43   2.269       .  S
In40         O51   2.226       .  S
In40         O45   2.238       .  S
In40         O47   2.248       .  S
In40         O48   2.272       .  S
In40         O49   2.231       .  S
In40         O52   2.248       .  S
C41          O47   1.264       .  A
C41          O49   1.261       .  A
C41         C288   1.475       .  S
O42          C50   1.259       .  A
O43          C50   1.265       .  A
C44          O51   1.262       .  A
C44          O45   1.264       .  A
C44         C311   1.470       .  S
C46          O48   1.265       .  A
C46          O52   1.256       .  A
C46         C278   1.484       .  S
C50         C268   1.484       .  S
In53         O55   2.246       .  S
In53         O56   2.277       .  S
In53         O64   2.248       .  S
In53         O58   2.243       .  S
In53         O60   2.256       .  S
In53         O61   2.267       .  S
In53         O62   2.238       .  S
In53         O65   2.245       .  S
C54          O60   1.265       .  A
C54          O62   1.260       .  A
C54        C1183   1.479       .  S
O55          C63   1.258       .  A
O56          C63   1.264       .  A
C57          O64   1.263       .  A
C57          O58   1.264       .  A
C57         C258   1.480       .  S
C59          O61   1.264       .  A
C59          O65   1.257       .  A
C59         C248   1.481       .  S
C63         C238   1.485       .  S
In66         O68   2.240       .  S
In66         O69   2.279       .  S
In66         O77   2.260       .  S
In66         O71   2.245       .  S
In66         O74   2.297       .  S
In66         O75   2.235       .  S
In66         O78   2.216       .  S
In66        O469   2.226       .  S
C67          O73   1.265       .  A
C67         O471   1.264       .  A
C67         C218   1.473       .  S
O68          C76   1.257       .  A
O69          C76   1.267       .  A
C70          O77   1.264       .  A
C70          O71   1.262       .  A
C70         C261   1.483       .  S
C72          O74   1.268       .  A
C72          O78   1.256       .  A
C72         C281   1.482       .  S
O73        In462   2.226       .  S
O75         C463   1.264       .  A
C76         C228   1.484       .  S
In79         O81   2.248       .  S
In79         O82   2.285       .  S
In79         O90   2.254       .  S
In79         O84   2.236       .  S
In79         O86   2.251       .  S
In79         O87   2.279       .  S
In79         O88   2.241       .  S
In79         O91   2.235       .  S
C80          O86   1.264       .  A
C80          O88   1.261       .  A
C80         C717   1.479       .  S
O81          C89   1.261       .  A
O82          C89   1.268       .  A
C83          O90   1.265       .  A
C83          O84   1.263       .  A
C83         C208   1.481       .  S
C85          O87   1.267       .  A
C85          O91   1.257       .  A
C85         C198   1.482       .  S
C89         C331   1.491       .  S
In92         O94   2.232       .  S
In92         O95   2.295       .  S
In92        O103   2.262       .  S
In92         O97   2.237       .  S
In92         O99   2.255       .  S
In92        O100   2.297       .  S
In92        O101   2.240       .  S
In92        O104   2.235       .  S
C93          O99   1.264       .  A
C93         O101   1.262       .  A
C93         C188   1.481       .  S
O94         C102   1.258       .  A
O95         C102   1.268       .  A
C96         O103   1.265       .  A
C96          O97   1.263       .  A
C96         C211   1.482       .  S
C98         O100   1.265       .  A
C98         O104   1.255       .  A
C98         C251   1.486       .  S
C102        C361   1.487       .  S
In105       O107   2.238       .  S
In105       O108   2.284       .  S
In105       O116   2.266       .  S
In105       O110   2.235       .  S
In105       O113   2.280       .  S
In105       O114   2.254       .  S
In105       O117   2.247       .  S
In105       O904   2.256   1_455  S
C106        O112   1.263       .  A
C106        O906   1.261       .  A
C106        C191   1.482       .  S
O107        C115   1.257       .  A
O108        C115   1.267       .  A
C109        O116   1.265       .  A
C109        O110   1.263       .  A
C109        C178   1.482       .  S
C111        O113   1.265       .  A
C111        O117   1.258       .  A
C111        C368   1.486       .  S
O112       In897   2.256       .  S
O114        C898   1.261   1_455  A
C115        C241   1.488       .  S
In118       O120   2.232       .  S
In118       O121   2.276       .  S
In118       O129   2.263       .  S
In118       O123   2.231       .  S
In118       O125   2.247       .  S
In118       O126   2.282       .  S
In118       O127   2.231       .  S
In118       O130   2.225       .  S
C119        O125   1.265       .  A
C119        O127   1.261       .  A
C119        C687   1.475       .  S
O120        C128   1.259       .  A
O121        C128   1.268       .  A
C122        O129   1.265       .  A
C122        O123   1.264       .  A
C122        C181   1.481       .  S
C124        O126   1.267       .  A
C124        O130   1.257       .  A
C124        C168   1.482       .  S
C128        C231   1.483       .  S
In131       O133   2.241       .  S
In131       O134   2.273       .  S
In131       O142   2.248       .  S
In131       O136   2.239       .  S
In131       O138   2.257       .  S
In131       O139   2.265       .  S
In131       O140   2.242       .  S
In131       O143   2.243       .  S
C132        O138   1.263       .  A
C132        O140   1.260       .  A
C132        C221   1.479       .  S
O133        C141   1.260       .  A
O134        C141   1.265       .  A
C135        O142   1.263       .  A
C135        O136   1.264       .  A
C135        C158   1.477       .  S
C137        O139   1.264       .  A
C137        O143   1.257       .  A
C137        C171   1.478       .  S
C141        C271   1.485       .  S
In144       O146   2.248       .  S
In144       O147   2.266       .  S
In144       O155   2.261       .  S
In144       O149   2.228       .  S
In144       O151   2.261       .  S
In144       O152   2.283       .  S
In144       O153   2.230       .  S
In144       O156   2.243       .  S
C145        O151   1.264       .  A
C145        O153   1.260       .  A
C145       C1140   1.479       .  S
O146        C154   1.260       .  A
O147        C154   1.267       .  A
C148        O155   1.265       .  A
C148        O149   1.263       .  A
C148        C161   1.480       .  S
C150        O152   1.266       .  A
C150        O156   1.258       .  A
C150        C201   1.485       .  S
C154        C301   1.486       .  S
C157        C158   1.407       .  A
C157        C162   1.403       .  A
C157        H163   1.082       .  S
C158        C159   1.402       .  A
C159        C160   1.395       .  A
C159        H164   1.084       .  S
C160        C161   1.405       .  A
C160        H165   1.081       .  S
C161        C162   1.406       .  A
C162        H166   1.084       .  S
C167        C168   1.408   1_655  A
C167        C964   1.398       .  A
C167        H173   1.080       .  S
C168        C169   1.404       .  A
C169        C962   1.403   1_455  A
C169        H174   1.086       .  S
C170        C171   1.408       .  A
C170        C961   1.403       .  A
C170        H175   1.083       .  S
C171        C172   1.401       .  A
C172        C959   1.398       .  A
C172        H176   1.084       .  S
C177        C178   1.407       .  A
C177        C182   1.405       .  A
C177        H183   1.084       .  S
C178        C179   1.404       .  A
C179        C180   1.395       .  A
C179        H184   1.083       .  S
C180        C181   1.404       .  A
C180        H185   1.082       .  S
C181        C182   1.406       .  A
C182        H186   1.084       .  S
C187        C188   1.405   1_556  A
C187        C192   1.399       .  A
C187        H193   1.082       .  S
C188        C189   1.405       .  A
C189        C190   1.402       .  A
C189        H194   1.084       .  S
C190        C191   1.407   1_554  A
C190        H195   1.082       .  S
C191        C192   1.404       .  A
C192        H196   1.084       .  S
C197        C198   1.408       .  A
C197        C202   1.402       .  A
C197        H203   1.082       .  S
C198        C199   1.402       .  A
C199        C200   1.403       .  A
C199        H204   1.085       .  S
C200        C201   1.409       .  A
C200        H205   1.081       .  S
C201        C202   1.403       .  A
C202        H206   1.086       .  S
C207        C208   1.405       .  A
C207        C212   1.403       .  A
C207        H213   1.084       .  S
C208        C209   1.405       .  A
C209        C210   1.399       .  A
C209        H214   1.082       .  S
C210        C211   1.405       .  A
C210        H215   1.084       .  S
C211        C212   1.406       .  A
C212        H216   1.081       .  S
C217        C218   1.402       .  A
C217        C222   1.396       .  A
C217        H223   1.085       .  S
C218        C219   1.405       .  A
C219        C220   1.400       .  A
C219        H224   1.082       .  S
C220        C221   1.405       .  A
C220        H225   1.084       .  S
C221        C222   1.406       .  A
C222        H226   1.082       .  S
C227        C232   1.402       .  A
C227        C624   1.410       .  A
C227        H233   1.084       .  S
C228        C229   1.402       .  A
C228        C623   1.410   1_545  A
C229        C230   1.400       .  A
C229        H234   1.083       .  S
C230        C627   1.408   1_545  A
C230        H235   1.084       .  S
C231        C232   1.403       .  A
C231        C626   1.408       .  A
C232        H236   1.084       .  S
C237        C238   1.404       .  A
C237        C242   1.403       .  A
C237        H243   1.084       .  S
C238       C1031   1.407       .  A
C239        C240   1.402       .  A
C239       C1030   1.407   1_455  A
C239        H244   1.084       .  S
C240        C241   1.403       .  A
C240        H245   1.084       .  S
C241       C1034   1.410   1_455  A
C242       C1033   1.410       .  A
C242        H246   1.084       .  S
C247        C248   1.402   1_554  A
C247        C648   1.400   1_545  A
C247        H253   1.084       .  S
C248        C249   1.408       .  A
C249        C646   1.404   1_545  A
C249        H254   1.083       .  S
C250        C251   1.404   1_556  A
C250        C645   1.404       .  A
C250        H255   1.084       .  S
C251        C252   1.409       .  A
C252        C643   1.400       .  A
C252        H256   1.082       .  S
C257        C258   1.405       .  A
C257        C262   1.401       .  A
C257        H263   1.083       .  S
C258        C259   1.405       .  A
C259        C260   1.400       .  A
C259        H264   1.083       .  S
C260        C261   1.406       .  A
C260        H265   1.083       .  S
C261        C262   1.405       .  A
C262        H266   1.083       .  S
C267        C268   1.408       .  A
C267        C272   1.403       .  A
C267        H273   1.084       .  S
C268        C269   1.403       .  A
C269        C270   1.401       .  A
C269        H274   1.083       .  S
C270        C271   1.407       .  A
C270        H275   1.083       .  S
C271        C272   1.405       .  A
C272        H276   1.084       .  S
C277        C282   1.406       .  A
C277       C1070   1.411       .  A
C277        H283   1.081       .  S
C278        C279   1.401       .  A
C278       C1069   1.411   1_455  A
C279       C1072   1.399   1_455  A
C279        H284   1.085       .  S
C280        C281   1.407       .  A
C280       C1071   1.399       .  A
C280        H285   1.081       .  S
C281        C282   1.403       .  A
C282        H286   1.085       .  S
C287        C288   1.403       .  A
C287        C292   1.398       .  A
C287        H293   1.084       .  S
C288        C289   1.405       .  A
C289        C290   1.397       .  A
C289        H294   1.082       .  S
C290        C291   1.402       .  A
C290        H295   1.084       .  S
C291        C515   1.475   1_545  S
C291        C292   1.406       .  A
C292        H296   1.083       .  S
C297        C302   1.400       .  A
C297       C1090   1.406       .  A
C297        H303   1.084       .  S
C298        C299   1.404       .  A
C298       C1089   1.406   1_455  A
C299        C300   1.405       .  A
C299        H304   1.084       .  S
C300       C1093   1.410   1_455  A
C300        H305   1.084       .  S
C301        C302   1.403       .  A
C301       C1092   1.410       .  A
C302        H306   1.083       .  S
C307        C308   1.404       .  A
C307        C312   1.396       .  A
C307        H313   1.084       .  S
C308        C309   1.404       .  A
C309        C310   1.397       .  A
C309        H314   1.082       .  S
C310        C311   1.403       .  A
C310        H315   1.084       .  S
C311        C312   1.404       .  A
C312        H316   1.081       .  S
C317        C318   1.404       .  A
C317        C322   1.400       .  A
C317        H323   1.084       .  S
C318        C319   1.406       .  A
C319        C320   1.397       .  A
C319        H324   1.082       .  S
C320        C321   1.403       .  A
C320        H325   1.084       .  S
C321        C476   1.479   1_545  S
C321        C322   1.407       .  A
C322        H326   1.082       .  S
C327        C332   1.405       .  A
C327        C724   1.409       .  A
C327        H333   1.084       .  S
C328        C329   1.405       .  A
C328        C723   1.409   1_545  A
C329        C330   1.406       .  A
C329        H334   1.083       .  S
C330        C727   1.409   1_545  A
C330        H335   1.084       .  S
C331        C332   1.404       .  A
C331        C726   1.409       .  A
C332        H336   1.083       .  S
C337        C338   1.403       .  A
C337        C342   1.400       .  A
C337        H343   1.085       .  S
C338        C339   1.408       .  A
C339        C340   1.402       .  A
C339        H344   1.082       .  S
C340        C341   1.403       .  A
C340        H345   1.086       .  S
C341        C342   1.406       .  A
C342        H346   1.081       .  S
C347        C348   1.405       .  A
C347        C352   1.402       .  A
C347        H353   1.084       .  S
C348        C937   1.479   1_455  S
C348        C349   1.405       .  A
C349        C350   1.396       .  A
C349        H354   1.082       .  S
C350        C351   1.402       .  A
C350        H355   1.084       .  S
C351        C352   1.407       .  A
C352        H356   1.082       .  S
C357        C358   1.403       .  A
C357        C362   1.402       .  A
C357        H363   1.084       .  S
C358        C359   1.411       .  A
C359        C360   1.405       .  A
C359        H364   1.084       .  S
C360        C361   1.403       .  A
C360        H365   1.084       .  S
C361        C362   1.409       .  A
C362        H366   1.084       .  S
C367        C368   1.404   1_554  A
C367        C768   1.403       .  A
C367        H373   1.084       .  S
C368        C369   1.408       .  A
C369        C766   1.402       .  A
C369        H374   1.083       .  S
C370        C371   1.403   1_556  A
C370        C765   1.402   1_545  A
C370        H375   1.084       .  S
C371        C372   1.408   1_545  A
C372        C763   1.403       .  A
C372        H376   1.083       .  S
C377        C378   1.405       .  A
C377        C382   1.402       .  A
C377        H383   1.084       .  S
C378        C379   1.404       .  A
C379        C380   1.394       .  A
C379        H384   1.083       .  S
C380        C381   1.402       .  A
C380        H385   1.083       .  S
C381        C382   1.406       .  A
C382        H386   1.083       .  S
C387        C388   1.406   1_556  A
C387        C392   1.400       .  A
C387        H393   1.082       .  S
C388        C389   1.403       .  A
C389        C390   1.398       .  A
C389        H394   1.084       .  S
C390        C391   1.406   1_554  A
C390        H395   1.082   1_455  S
C391        C846   1.479   1_455  S
C391        C392   1.404       .  A
C392        H396   1.084       .  S
In397       O399   2.235       .  S
In397       O400   2.284       .  S
In397       O408   2.260       .  S
In397       O402   2.220       .  S
In397       O404   2.245       .  S
In397       O405   2.280       .  S
In397       O406   2.246       .  S
In397       O409   2.244       .  S
C398        O404   1.263       .  A
C398        O406   1.261       .  A
C398        C784   1.479       .  S
O399        C407   1.259       .  A
O400        C407   1.268       .  A
C401        O408   1.265       .  A
C401        O402   1.262       .  A
C401        C774   1.476       .  S
C403        O405   1.266       .  A
C403        O409   1.257       .  A
C403        C767   1.482       .  S
C407        C754   1.489       .  S
In410       O412   2.242       .  S
In410       O413   2.278       .  S
In410       O421   2.242       .  S
In410       O415   2.231       .  S
In410       O418   2.267       .  S
In410       O419   2.246       .  S
In410       O422   2.242       .  S
C411        O417   1.265       .  A
C411        C747   1.479       .  S
O412        C420   1.260       .  A
O413        C420   1.268       .  A
C414        O421   1.264       .  A
C414        O415   1.265       .  A
C414        C777   1.476       .  S
C416        O418   1.267       .  A
C416        O422   1.259       .  A
C416        C734   1.481       .  S
C420        C724   1.490       .  S
In423       O425   2.234   1_455  S
In423       O426   2.284       .  S
In423       O434   2.233       .  S
In423       O428   2.243       .  S
In423      O1222   2.252   1_455  S
In423       O431   2.268       .  S
In423       O432   2.232       .  S
In423       O435   2.239       .  S
C424        O430   1.265       .  A
C424       O1224   1.261       .  A
C424        C714   1.477       .  S
O425        C433   1.257   1_655  A
O426        C433   1.265       .  A
C427        O434   1.262       .  A
C427        O428   1.264       .  A
C427        C704   1.474       .  S
C429        O431   1.266       .  A
C429        O435   1.259       .  A
C429        C737   1.479       .  S
O430      In1215   2.252       .  S
O432       C1216   1.261   1_455  A
C433        C694   1.483       .  S
In436       O438   2.254       .  S
In436       O439   2.269       .  S
In436       O447   2.226       .  S
In436       O441   2.238       .  S
In436       O443   2.248       .  S
In436       O444   2.272       .  S
In436       O445   2.231       .  S
In436       O448   2.248       .  S
C437        O443   1.264       .  A
C437        O445   1.261       .  A
C437        C684   1.475       .  S
O438        C446   1.259       .  A
O439        C446   1.265       .  A
C440        O447   1.262       .  A
C440        O441   1.264       .  A
C440        C707   1.470       .  S
C442        O444   1.265       .  A
C442        O448   1.256       .  A
C442        C674   1.484       .  S
C446        C664   1.484       .  S
In449       O451   2.246       .  S
In449       O452   2.277       .  S
In449       O460   2.248       .  S
In449       O454   2.243       .  S
In449       O456   2.256       .  S
In449       O457   2.267       .  S
In449       O458   2.238       .  S
In449       O461   2.245       .  S
C450        O456   1.265       .  A
C450        O458   1.260       .  A
C450       C1579   1.479       .  S
O451        C459   1.258       .  A
O452        C459   1.264       .  A
C453        O460   1.263       .  A
C453        O454   1.264       .  A
C453        C654   1.480       .  S
C455        O457   1.264       .  A
C455        O461   1.257       .  A
C455        C644   1.481       .  S
C459        C634   1.485       .  S
In462       O464   2.240       .  S
In462       O465   2.279       .  S
In462       O473   2.260       .  S
In462       O467   2.245       .  S
In462       O470   2.297       .  S
In462       O471   2.235       .  S
In462       O474   2.216       .  S
C463        O469   1.265       .  A
C463        C614   1.473   1_545  S
O464        C472   1.257       .  A
O465        C472   1.267       .  A
C466        O473   1.264       .  A
C466        O467   1.262       .  A
C466        C657   1.483       .  S
C468        O470   1.268       .  A
C468        O474   1.256       .  A
C468        C677   1.482       .  S
C472        C624   1.484       .  S
In475       O477   2.248       .  S
In475       O478   2.285       .  S
In475       O486   2.254       .  S
In475       O480   2.236       .  S
In475       O482   2.251       .  S
In475       O483   2.279       .  S
In475       O484   2.241       .  S
In475       O487   2.235       .  S
C476        O482   1.264       .  A
C476        O484   1.261       .  A
O477        C485   1.261       .  A
O478        C485   1.268       .  A
C479        O486   1.265       .  A
C479        O480   1.263       .  A
C479        C604   1.481       .  S
C481        O483   1.267       .  A
C481        O487   1.257       .  A
C481        C594   1.482       .  S
C485        C727   1.491       .  S
In488       O490   2.232       .  S
In488       O491   2.295       .  S
In488       O499   2.262       .  S
In488       O493   2.237       .  S
In488       O495   2.255       .  S
In488       O496   2.297       .  S
In488       O497   2.240       .  S
In488       O500   2.235       .  S
C489        O495   1.264       .  A
C489        O497   1.262       .  A
C489        C584   1.481       .  S
O490        C498   1.258       .  A
O491        C498   1.268       .  A
C492        O499   1.265       .  A
C492        O493   1.263       .  A
C492        C607   1.482       .  S
C494        O496   1.265       .  A
C494        O500   1.255       .  A
C494        C647   1.486       .  S
C498        C757   1.487       .  S
In501       O503   2.238       .  S
In501       O504   2.284       .  S
In501       O512   2.266       .  S
In501       O506   2.235       .  S
In501      O1300   2.256   1_455  S
In501       O509   2.280       .  S
In501       O510   2.254       .  S
In501       O513   2.247       .  S
C502        O508   1.263       .  A
C502       O1302   1.261       .  A
C502        C587   1.482       .  S
O503        C511   1.257       .  A
O504        C511   1.267       .  A
C505        O512   1.265       .  A
C505        O506   1.263       .  A
C505        C574   1.482       .  S
C507        O509   1.265       .  A
C507        O513   1.258       .  A
C507        C764   1.486       .  S
O508      In1293   2.256       .  S
O510       C1294   1.261   1_455  A
C511        C637   1.488       .  S
In514       O516   2.232       .  S
In514       O517   2.276       .  S
In514       O525   2.263       .  S
In514       O519   2.231       .  S
In514       O521   2.247       .  S
In514       O522   2.282       .  S
In514       O523   2.231       .  S
In514       O526   2.225       .  S
C515        O521   1.265       .  A
C515        O523   1.261       .  A
O516        C524   1.259       .  A
O517        C524   1.268       .  A
C518        O525   1.265       .  A
C518        O519   1.264       .  A
C518        C577   1.481       .  S
C520        O522   1.267       .  A
C520        O526   1.257       .  A
C520        C564   1.482       .  S
C524        C627   1.483       .  S
In527       O529   2.241       .  S
In527       O530   2.273       .  S
In527       O538   2.248       .  S
In527       O532   2.239       .  S
In527       O534   2.257       .  S
In527       O535   2.265       .  S
In527       O536   2.242       .  S
In527       O539   2.243       .  S
C528        O534   1.263       .  A
C528        O536   1.260       .  A
C528        C617   1.479       .  S
O529        C537   1.260       .  A
O530        C537   1.265       .  A
C531        O538   1.263       .  A
C531        O532   1.264       .  A
C531        C554   1.477       .  S
C533        O535   1.264       .  A
C533        O539   1.257       .  A
C533        C567   1.478       .  S
C537        C667   1.485       .  S
In540       O542   2.248       .  S
In540       O543   2.266       .  S
In540       O551   2.261       .  S
In540       O545   2.229       .  S
In540       O547   2.261       .  S
In540       O548   2.283       .  S
In540       O549   2.230       .  S
In540       O552   2.243       .  S
C541        O547   1.264       .  A
C541        O549   1.260       .  A
C541       C1536   1.479       .  S
O542        C550   1.260       .  A
O543        C550   1.267       .  A
C544        O551   1.265       .  A
C544        O545   1.263       .  A
C544        C557   1.480       .  S
C546        O548   1.266       .  A
C546        O552   1.258       .  A
C546        C597   1.485       .  S
C550        C697   1.486       .  S
C553        C554   1.407       .  A
C553        C558   1.403       .  A
C553        H559   1.082       .  S
C554        C555   1.402       .  A
C555        C556   1.395       .  A
C555        H560   1.084       .  S
C556        C557   1.405       .  A
C556        H561   1.081       .  S
C557        C558   1.406       .  A
C558        H562   1.084       .  S
C563        C564   1.408   1_655  A
C563       C1360   1.398       .  A
C563        H569   1.080       .  S
C564        C565   1.404       .  A
C565       C1358   1.403   1_455  A
C565        H570   1.086       .  S
C566       C1357   1.403       .  A
C566        C567   1.408       .  A
C566        H571   1.083       .  S
C567        C568   1.401       .  A
C568       C1355   1.398       .  A
C568        H572   1.084       .  S
C573        C574   1.407       .  A
C573        C578   1.405       .  A
C573        H579   1.084       .  S
C574        C575   1.404       .  A
C575        C576   1.395       .  A
C575        H580   1.083       .  S
C576        C577   1.404       .  A
C576        H581   1.082       .  S
C577        C578   1.406       .  A
C578        H582   1.084       .  S
C583        C584   1.405   1_556  A
C583        C588   1.399       .  A
C583        H589   1.082       .  S
C584        C585   1.405       .  A
C585        C586   1.402       .  A
C585        H590   1.084       .  S
C586        C587   1.407   1_554  A
C586        H591   1.082       .  S
C587        C588   1.404       .  A
C588        H592   1.084       .  S
C593        C594   1.408       .  A
C593        C598   1.402       .  A
C593        H599   1.082       .  S
C594        C595   1.402       .  A
C595        C596   1.403       .  A
C595        H600   1.085       .  S
C596        C597   1.409       .  A
C596        H601   1.081       .  S
C597        C598   1.403       .  A
C598        H602   1.086       .  S
C603        C604   1.405       .  A
C603        C608   1.403       .  A
C603        H609   1.084       .  S
C604        C605   1.405       .  A
C605        C606   1.399       .  A
C605        H610   1.082       .  S
C606        C607   1.405       .  A
C606        H611   1.084       .  S
C607        C608   1.406       .  A
C608        H612   1.081       .  S
C613        C614   1.402       .  A
C613        C618   1.396       .  A
C613        H619   1.085       .  S
C614        C615   1.405       .  A
C615        C616   1.400       .  A
C615        H620   1.082       .  S
C616        C617   1.405       .  A
C616        H621   1.084       .  S
C617        C618   1.406       .  A
C618        H622   1.082       .  S
C623        C628   1.402       .  A
C623        H629   1.084       .  S
C624        C625   1.402       .  A
C625        C626   1.400       .  A
C625        H630   1.083       .  S
C626        H631   1.084       .  S
C627        C628   1.403       .  A
C628        H632   1.084       .  S
C633        C634   1.404       .  A
C633        C638   1.403       .  A
C633        H639   1.084       .  S
C634       C1427   1.407       .  A
C635       C1426   1.407   1_455  A
C635        C636   1.402       .  A
C635        H640   1.084       .  S
C636        C637   1.403       .  A
C636        H641   1.084       .  S
C637       C1430   1.410   1_455  A
C638       C1429   1.410       .  A
C638        H642   1.084       .  S
C643        C644   1.402   1_554  A
C643        H649   1.084       .  S
C644        C645   1.408       .  A
C645        H650   1.083       .  S
C646        C647   1.404   1_556  A
C646        H651   1.084       .  S
C647        C648   1.409       .  A
C648        H652   1.082       .  S
C653        C654   1.405       .  A
C653        C658   1.401       .  A
C653        H659   1.083       .  S
C654        C655   1.405       .  A
C655        C656   1.400       .  A
C655        H660   1.083       .  S
C656        C657   1.406       .  A
C656        H661   1.083       .  S
C657        C658   1.405       .  A
C658        H662   1.083       .  S
C663        C664   1.408       .  A
C663        C668   1.403       .  A
C663        H669   1.084       .  S
C664        C665   1.403       .  A
C665        C666   1.401       .  A
C665        H670   1.083       .  S
C666        C667   1.407       .  A
C666        H671   1.083       .  S
C667        C668   1.405       .  A
C668        H672   1.084       .  S
C673       C1466   1.411       .  A
C673        C678   1.406       .  A
C673        H679   1.081       .  S
C674       C1465   1.411   1_455  A
C674        C675   1.401       .  A
C675       C1468   1.399   1_455  A
C675        H680   1.085       .  S
C676       C1467   1.399       .  A
C676        C677   1.407       .  A
C676        H681   1.081       .  S
C677        C678   1.403       .  A
C678        H682   1.085       .  S
C683        C684   1.403       .  A
C683        C688   1.398       .  A
C683        H689   1.084       .  S
C684        C685   1.405       .  A
C685        C686   1.397       .  A
C685        H690   1.082       .  S
C686        C687   1.402       .  A
C686        H691   1.084       .  S
C687        C688   1.406       .  A
C688        H692   1.083       .  S
C693       C1486   1.406       .  A
C693        C698   1.400       .  A
C693        H699   1.084       .  S
C694       C1485   1.406   1_455  A
C694        C695   1.404       .  A
C695        C696   1.405       .  A
C695        H700   1.084       .  S
C696       C1489   1.410   1_455  A
C696        H701   1.084       .  S
C697       C1488   1.410       .  A
C697        C698   1.403       .  A
C698        H702   1.083       .  S
C703        C704   1.404       .  A
C703        C708   1.396       .  A
C703        H709   1.084       .  S
C704        C705   1.404       .  A
C705        C706   1.397       .  A
C705        H710   1.082       .  S
C706        C707   1.403       .  A
C706        H711   1.084       .  S
C707        C708   1.404       .  A
C708        H712   1.081       .  S
C713        C714   1.403       .  A
C713        C718   1.400       .  A
C713        H719   1.084       .  S
C714        C715   1.406       .  A
C715        C716   1.397       .  A
C715        H720   1.082       .  S
C716        C717   1.403       .  A
C716        H721   1.084       .  S
C717        C718   1.407       .  A
C718        H722   1.082       .  S
C723        C728   1.405       .  A
C723        H729   1.084       .  S
C724        C725   1.405       .  A
C725        C726   1.406       .  A
C725        H730   1.083       .  S
C726        H731   1.084       .  S
C727        C728   1.404       .  A
C728        H732   1.083       .  S
C733        C734   1.403       .  A
C733        C738   1.400       .  A
C733        H739   1.085       .  S
C734        C735   1.408       .  A
C735        C736   1.402       .  A
C735        H740   1.082       .  S
C736        C737   1.403       .  A
C736        H741   1.086       .  S
C737        C738   1.406       .  A
C738        H742   1.081       .  S
C743        C744   1.405       .  A
C743        C748   1.402       .  A
C743        H749   1.084       .  S
C744       C1333   1.479   1_455  S
C744        C745   1.405       .  A
C745        C746   1.396       .  A
C745        H750   1.082       .  S
C746        C747   1.402       .  A
C746        H751   1.084       .  S
C747        C748   1.407       .  A
C748        H752   1.082       .  S
C753        C754   1.403       .  A
C753        C758   1.402       .  A
C753        H759   1.084       .  S
C754        C755   1.411       .  A
C755        C756   1.405       .  A
C755        H760   1.084       .  S
C756        C757   1.403       .  A
C756        H761   1.084       .  S
C757        C758   1.409       .  A
C758        H762   1.084       .  S
C763        C764   1.404   1_554  A
C763        H769   1.084       .  S
C764        C765   1.408       .  A
C765        H770   1.083       .  S
C766        C767   1.403   1_556  A
C766        H771   1.084       .  S
C767        C768   1.408       .  A
C768        H772   1.083       .  S
C773        C774   1.405       .  A
C773        C778   1.402       .  A
C773        H779   1.084       .  S
C774        C775   1.404       .  A
C775        C776   1.394       .  A
C775        H780   1.083       .  S
C776        C777   1.402       .  A
C776        H781   1.083       .  S
C777        C778   1.406       .  A
C778        H782   1.083       .  S
C783        C784   1.406   1_556  A
C783        C788   1.400       .  A
C783        H789   1.082       .  S
C784        C785   1.403       .  A
C785        C786   1.398       .  A
C785        H790   1.084       .  S
C786        C787   1.406   1_554  A
C786        H791   1.082   1_455  S
C787       C1242   1.479   1_455  S
C787        C788   1.404       .  A
C788        H792   1.084       .  S
In793       O795   2.235       .  S
In793       O796   2.284       .  S
In793       O804   2.260       .  S
In793       O798   2.220       .  S
In793       O800   2.245       .  S
In793       O801   2.280       .  S
In793       O802   2.245       .  S
In793       O805   2.244       .  S
C794        O800   1.263       .  A
C794        O802   1.261       .  A
C794       C1180   1.479       .  S
O795        C803   1.259       .  A
O796        C803   1.268       .  A
C797        O804   1.265       .  A
C797        O798   1.262       .  A
C797       C1170   1.476       .  S
C799        O801   1.266       .  A
C799        O805   1.257       .  A
C799       C1163   1.482       .  S
C803       C1150   1.489       .  S
In806       O808   2.243       .  S
In806       O809   2.278       .  S
In806       O817   2.242       .  S
In806       O811   2.231       .  S
In806      O1209   2.242   1_545  S
In806       O814   2.267       .  S
In806       O815   2.246       .  S
In806       O818   2.242       .  S
C807        O813   1.265       .  A
C807       O1211   1.262       .  A
C807       C1143   1.479       .  S
O808        C816   1.260       .  A
O809        C816   1.268       .  A
C810        O817   1.264       .  A
C810        O811   1.265       .  A
C810       C1173   1.476       .  S
C812        O814   1.267       .  A
C812        O818   1.259       .  A
C812       C1130   1.481       .  S
O813      In1202   2.242       .  S
O815       C1203   1.262   1_545  A
C816       C1120   1.490       .  S
In819       O821   2.234       .  S
In819       O822   2.284       .  S
In819       O830   2.233       .  S
In819       O824   2.243       .  S
In819       O827   2.268       .  S
In819       O828   2.232       .  S
In819       O831   2.239       .  S
C820        O826   1.265       .  A
C820       C1110   1.477       .  S
O821        C829   1.257       .  A
O822        C829   1.265       .  A
C823        O830   1.262       .  A
C823        O824   1.264       .  A
C823       C1100   1.474       .  S
C825        O827   1.266       .  A
C825        O831   1.259       .  A
C825       C1133   1.479       .  S
C829       C1090   1.483       .  S
In832       O834   2.254       .  S
In832       O835   2.269       .  S
In832       O843   2.226       .  S
In832       O837   2.238       .  S
In832       O839   2.248       .  S
In832       O840   2.272       .  S
In832       O841   2.231       .  S
In832       O844   2.248       .  S
C833        O839   1.264       .  A
C833        O841   1.261       .  A
C833       C1080   1.475       .  S
O834        C842   1.259       .  A
O835        C842   1.265       .  A
C836        O843   1.262       .  A
C836        O837   1.264       .  A
C836       C1103   1.470       .  S
C838        O840   1.265       .  A
C838        O844   1.256       .  A
C838       C1070   1.484       .  S
C842       C1060   1.484       .  S
In845       O847   2.246       .  S
In845       O848   2.277       .  S
In845       O856   2.248       .  S
In845       O850   2.243       .  S
In845       O852   2.256       .  S
In845       O853   2.267       .  S
In845       O854   2.238       .  S
In845       O857   2.245       .  S
C846        O852   1.265       .  A
C846        O854   1.260       .  A
O847        C855   1.258       .  A
O848        C855   1.264       .  A
C849        O856   1.263       .  A
C849        O850   1.264       .  A
C849       C1050   1.480       .  S
C851        O853   1.264       .  A
C851        O857   1.257       .  A
C851       C1040   1.481       .  S
C855       C1030   1.485       .  S
In858       O860   2.240       .  S
In858       O861   2.279       .  S
In858       O869   2.260       .  S
In858       O863   2.245       .  S
In858      O1261   2.226       .  S
In858       O866   2.297       .  S
In858       O867   2.235       .  S
In858       O870   2.216       .  S
C859        O865   1.265       .  A
C859       O1263   1.264       .  A
C859       C1010   1.473       .  S
O860        C868   1.257       .  A
O861        C868   1.267       .  A
C862        O869   1.264       .  A
C862        O863   1.262       .  A
C862       C1053   1.483       .  S
C864        O866   1.268       .  A
C864        O870   1.256       .  A
C864       C1073   1.482       .  S
O865      In1254   2.226       .  S
O867       C1255   1.264       .  A
C868       C1020   1.484       .  S
In871       O873   2.248       .  S
In871       O874   2.285       .  S
In871       O882   2.254       .  S
In871       O876   2.236       .  S
In871       O878   2.251       .  S
In871       O879   2.279       .  S
In871       O880   2.241       .  S
In871       O883   2.235       .  S
C872        O878   1.264       .  A
C872        O880   1.261       .  A
C872       C1509   1.479       .  S
O873        C881   1.261       .  A
O874        C881   1.268       .  A
C875        O882   1.265       .  A
C875        O876   1.263       .  A
C875       C1000   1.481       .  S
C877        O879   1.267       .  A
C877        O883   1.257       .  A
C877        C990   1.482       .  S
C881       C1123   1.491       .  S
In884       O886   2.232       .  S
In884       O887   2.295       .  S
In884       O895   2.262       .  S
In884       O889   2.237       .  S
In884       O891   2.255       .  S
In884       O892   2.297       .  S
In884       O893   2.240       .  S
In884       O896   2.235       .  S
C885        O891   1.264       .  A
C885        O893   1.262       .  A
C885        C980   1.481       .  S
O886        C894   1.258       .  A
O887        C894   1.268       .  A
C888        O895   1.265       .  A
C888        O889   1.263       .  A
C888       C1003   1.482       .  S
C890        O892   1.265       .  A
C890        O896   1.255       .  A
C890       C1043   1.486       .  S
C894       C1153   1.487       .  S
In897       O899   2.238       .  S
In897       O900   2.284       .  S
In897       O908   2.266       .  S
In897       O902   2.235       .  S
In897       O905   2.280       .  S
In897       O906   2.254       .  S
In897       O909   2.247       .  S
C898        O904   1.263       .  A
C898        C983   1.482       .  S
O899        C907   1.257       .  A
O900        C907   1.267       .  A
C901        O908   1.265       .  A
C901        O902   1.263       .  A
C901        C970   1.482       .  S
C903        O905   1.265       .  A
C903        O909   1.258       .  A
C903       C1160   1.486       .  S
C907       C1033   1.488       .  S
In910       O912   2.232       .  S
In910       O913   2.276       .  S
In910       O921   2.263       .  S
In910       O915   2.231       .  S
In910       O917   2.247       .  S
In910       O918   2.282       .  S
In910       O919   2.231       .  S
In910       O922   2.225       .  S
C911        O917   1.265       .  A
C911        O919   1.261       .  A
C911       C1479   1.475       .  S
O912        C920   1.259       .  A
O913        C920   1.268       .  A
C914        O921   1.265       .  A
C914        O915   1.264       .  A
C914        C973   1.481       .  S
C916        O918   1.267       .  A
C916        O922   1.257       .  A
C916        C960   1.482       .  S
C920       C1023   1.483       .  S
In923       O925   2.241       .  S
In923       O926   2.273       .  S
In923       O934   2.248       .  S
In923       O928   2.239       .  S
In923       O930   2.257       .  S
In923       O931   2.265       .  S
In923       O932   2.242       .  S
In923       O935   2.243       .  S
C924        O930   1.263       .  A
C924        O932   1.260       .  A
C924       C1013   1.479       .  S
O925        C933   1.260       .  A
O926        C933   1.265       .  A
C927        O934   1.263       .  A
C927        O928   1.264       .  A
C927        C950   1.477       .  S
C929        O931   1.264       .  A
C929        O935   1.257       .  A
C929        C963   1.478       .  S
C933       C1063   1.485       .  S
In936       O938   2.248       .  S
In936       O939   2.266       .  S
In936       O947   2.261       .  S
In936       O941   2.228       .  S
In936       O943   2.261       .  S
In936       O944   2.283       .  S
In936       O945   2.230       .  S
In936       O948   2.243       .  S
C937        O943   1.264       .  A
C937        O945   1.260       .  A
O938        C946   1.260       .  A
O939        C946   1.267       .  A
C940        O947   1.265       .  A
C940        O941   1.263       .  A
C940        C953   1.480       .  S
C942        O944   1.266       .  A
C942        O948   1.258       .  A
C942        C993   1.485       .  S
C946       C1093   1.486       .  S
C949        C950   1.407       .  A
C949        C954   1.403       .  A
C949        H955   1.082       .  S
C950        C951   1.402       .  A
C951        C952   1.395       .  A
C951        H956   1.084       .  S
C952        C953   1.405       .  A
C952        H957   1.081       .  S
C953        C954   1.406       .  A
C954        H958   1.084       .  S
C959        C960   1.408       .  A
C959        H965   1.080       .  S
C960        C961   1.404       .  A
C961        H966   1.086       .  S
C962        C963   1.408       .  A
C962        H967   1.083       .  S
C963        C964   1.401       .  A
C964        H968   1.084       .  S
C969        C970   1.407       .  A
C969        C974   1.405       .  A
C969        H975   1.084       .  S
C970        C971   1.404       .  A
C971        C972   1.395       .  A
C971        H976   1.083       .  S
C972        C973   1.404       .  A
C972        H977   1.082       .  S
C973        C974   1.406       .  A
C974        H978   1.084       .  S
C979        C980   1.405   1_556  A
C979        C984   1.399       .  A
C979        H985   1.082       .  S
C980        C981   1.405       .  A
C981        C982   1.402       .  A
C981        H986   1.084       .  S
C982        C983   1.407   1_554  A
C982        H987   1.082       .  S
C983        C984   1.404       .  A
C984        H988   1.084       .  S
C989        C990   1.408       .  A
C989        C994   1.402       .  A
C989        H995   1.082       .  S
C990        C991   1.402       .  A
C991        C992   1.403       .  A
C991        H996   1.085       .  S
C992        C993   1.409       .  A
C992        H997   1.081       .  S
C993        C994   1.403       .  A
C994        H998   1.086       .  S
C999       C1000   1.405       .  A
C999       C1004   1.403       .  A
C999       H1005   1.084       .  S
C1000      C1001   1.405       .  A
C1001      C1002   1.399       .  A
C1001      H1006   1.082       .  S
C1002      C1003   1.405       .  A
C1002      H1007   1.084       .  S
C1003      C1004   1.406       .  A
C1004      H1008   1.081       .  S
C1009      C1010   1.402       .  A
C1009      C1014   1.396       .  A
C1009      H1015   1.085       .  S
C1010      C1011   1.405       .  A
C1011      C1012   1.400       .  A
C1011      H1016   1.082       .  S
C1012      C1013   1.405       .  A
C1012      H1017   1.084       .  S
C1013      C1014   1.406       .  A
C1014      H1018   1.082       .  S
C1019      C1416   1.410       .  A
C1019      C1024   1.402       .  A
C1019      H1025   1.084       .  S
C1020      C1415   1.410   1_545  A
C1020      C1021   1.402       .  A
C1021      C1022   1.400       .  A
C1021      H1026   1.083       .  S
C1022      C1419   1.408   1_545  A
C1022      H1027   1.084       .  S
C1023      C1418   1.408       .  A
C1023      C1024   1.403       .  A
C1024      H1028   1.084       .  S
C1029      C1030   1.404       .  A
C1029      C1034   1.403       .  A
C1029      H1035   1.084       .  S
C1031      C1032   1.402       .  A
C1031      H1036   1.084       .  S
C1032      C1033   1.403       .  A
C1032      H1037   1.084       .  S
C1034      H1038   1.084       .  S
C1039      C1040   1.402   1_554  A
C1039      C1440   1.400   1_545  A
C1039      H1045   1.084       .  S
C1040      C1041   1.408       .  A
C1041      C1438   1.404   1_545  A
C1041      H1046   1.083       .  S
C1042      C1437   1.404       .  A
C1042      C1043   1.404   1_556  A
C1042      H1047   1.084       .  S
C1043      C1044   1.409       .  A
C1044      C1435   1.400       .  A
C1044      H1048   1.082       .  S
C1049      C1050   1.405       .  A
C1049      C1054   1.401       .  A
C1049      H1055   1.083       .  S
C1050      C1051   1.405       .  A
C1051      C1052   1.400       .  A
C1051      H1056   1.083       .  S
C1052      C1053   1.406       .  A
C1052      H1057   1.083       .  S
C1053      C1054   1.405       .  A
C1054      H1058   1.083       .  S
C1059      C1060   1.408       .  A
C1059      C1064   1.403       .  A
C1059      H1065   1.084       .  S
C1060      C1061   1.403       .  A
C1061      C1062   1.401       .  A
C1061      H1066   1.083       .  S
C1062      C1063   1.407       .  A
C1062      H1067   1.083       .  S
C1063      C1064   1.405       .  A
C1064      H1068   1.084       .  S
C1069      C1074   1.406       .  A
C1069      H1075   1.081       .  S
C1070      C1071   1.401       .  A
C1071      H1076   1.085       .  S
C1072      C1073   1.407       .  A
C1072      H1077   1.081       .  S
C1073      C1074   1.403       .  A
C1074      H1078   1.085       .  S
C1079      C1080   1.403       .  A
C1079      C1084   1.398       .  A
C1079      H1085   1.084       .  S
C1080      C1081   1.405       .  A
C1081      C1082   1.397       .  A
C1081      H1086   1.082       .  S
C1082      C1083   1.402       .  A
C1082      H1087   1.084       .  S
C1083      C1307   1.475   1_545  S
C1083      C1084   1.406       .  A
C1084      H1088   1.083       .  S
C1089      C1094   1.400       .  A
C1089      H1095   1.084       .  S
C1090      C1091   1.404       .  A
C1091      C1092   1.405       .  A
C1091      H1096   1.084       .  S
C1092      H1097   1.084       .  S
C1093      C1094   1.403       .  A
C1094      H1098   1.083       .  S
C1099      C1100   1.404       .  A
C1099      C1104   1.396       .  A
C1099      H1105   1.084       .  S
C1100      C1101   1.404       .  A
C1101      C1102   1.397       .  A
C1101      H1106   1.082       .  S
C1102      C1103   1.403       .  A
C1102      H1107   1.084       .  S
C1103      C1104   1.404       .  A
C1104      H1108   1.081       .  S
C1109      C1110   1.403       .  A
C1109      C1114   1.400       .  A
C1109      H1115   1.084       .  S
C1110      C1111   1.406       .  A
C1111      C1112   1.397       .  A
C1111      H1116   1.082       .  S
C1112      C1113   1.403       .  A
C1112      H1117   1.084       .  S
C1113      C1268   1.479   1_545  S
C1113      C1114   1.407       .  A
C1114      H1118   1.082       .  S
C1119      C1516   1.409       .  A
C1119      C1124   1.405       .  A
C1119      H1125   1.084       .  S
C1120      C1515   1.409   1_545  A
C1120      C1121   1.405       .  A
C1121      C1122   1.406       .  A
C1121      H1126   1.083       .  S
C1122      C1519   1.409   1_545  A
C1122      H1127   1.084       .  S
C1123      C1518   1.409       .  A
C1123      C1124   1.404       .  A
C1124      H1128   1.083       .  S
C1129      C1130   1.403       .  A
C1129      C1134   1.400       .  A
C1129      H1135   1.085       .  S
C1130      C1131   1.408       .  A
C1131      C1132   1.402       .  A
C1131      H1136   1.082       .  S
C1132      C1133   1.403       .  A
C1132      H1137   1.086       .  S
C1133      C1134   1.406       .  A
C1134      H1138   1.081       .  S
C1139      C1140   1.405       .  A
C1139      C1144   1.402       .  A
C1139      H1145   1.084       .  S
C1140      C1141   1.405       .  A
C1141      C1142   1.396       .  A
C1141      H1146   1.082       .  S
C1142      C1143   1.402       .  A
C1142      H1147   1.084       .  S
C1143      C1144   1.407       .  A
C1144      H1148   1.082       .  S
C1149      C1150   1.403       .  A
C1149      C1154   1.402       .  A
C1149      H1155   1.084       .  S
C1150      C1151   1.411       .  A
C1151      C1152   1.405       .  A
C1151      H1156   1.084       .  S
C1152      C1153   1.403       .  A
C1152      H1157   1.084       .  S
C1153      C1154   1.409       .  A
C1154      H1158   1.084       .  S
C1159      C1160   1.404   1_554  A
C1159      C1560   1.403       .  A
C1159      H1165   1.084       .  S
C1160      C1161   1.408       .  A
C1161      C1558   1.402       .  A
C1161      H1166   1.083       .  S
C1162      C1557   1.402   1_545  A
C1162      C1163   1.403   1_556  A
C1162      H1167   1.084       .  S
C1163      C1164   1.408   1_545  A
C1164      C1555   1.403       .  A
C1164      H1168   1.083       .  S
C1169      C1170   1.405       .  A
C1169      C1174   1.402       .  A
C1169      H1175   1.084       .  S
C1170      C1171   1.404       .  A
C1171      C1172   1.394       .  A
C1171      H1176   1.083       .  S
C1172      C1173   1.402       .  A
C1172      H1177   1.083       .  S
C1173      C1174   1.406       .  A
C1174      H1178   1.083       .  S
C1179      C1180   1.406   1_556  A
C1179      C1184   1.400       .  A
C1179      H1185   1.082       .  S
C1180      C1181   1.403       .  A
C1181      C1182   1.398       .  A
C1181      H1186   1.084       .  S
C1182      C1183   1.406   1_554  A
C1182      H1187   1.082       .  S
C1183      C1184   1.404       .  A
C1184      H1188   1.084       .  S
In1189     O1191   2.235       .  S
In1189     O1192   2.284       .  S
In1189     O1200   2.260       .  S
In1189     O1194   2.220       .  S
In1189     O1196   2.245       .  S
In1189     O1197   2.280       .  S
In1189     O1198   2.245       .  S
In1189     O1201   2.244       .  S
C1190      O1196   1.263       .  A
C1190      O1198   1.261       .  A
C1190      C1576   1.479       .  S
O1191      C1199   1.259       .  A
O1192      C1199   1.268       .  A
C1193      O1200   1.265       .  A
C1193      O1194   1.262       .  A
C1193      C1566   1.476       .  S
C1195      O1197   1.266       .  A
C1195      O1201   1.257       .  A
C1195      C1559   1.482       .  S
C1199      C1546   1.489       .  S
In1202     O1204   2.243       .  S
In1202     O1205   2.278       .  S
In1202     O1213   2.242       .  S
In1202     O1207   2.231       .  S
In1202     O1210   2.267       .  S
In1202     O1211   2.246       .  S
In1202     O1214   2.242       .  S
C1203      O1209   1.265       .  A
C1203      C1539   1.479       .  S
O1204      C1212   1.260       .  A
O1205      C1212   1.268       .  A
C1206      O1213   1.264       .  A
C1206      O1207   1.265       .  A
C1206      C1569   1.476       .  S
C1208      O1210   1.267       .  A
C1208      O1214   1.259       .  A
C1208      C1526   1.481       .  S
C1212      C1516   1.490       .  S
In1215     O1217   2.234       .  S
In1215     O1218   2.284       .  S
In1215     O1226   2.233       .  S
In1215     O1220   2.243       .  S
In1215     O1223   2.268       .  S
In1215     O1224   2.232       .  S
In1215     O1227   2.239       .  S
C1216      O1222   1.265       .  A
C1216      C1506   1.477       .  S
O1217      C1225   1.257       .  A
O1218      C1225   1.265       .  A
C1219      O1226   1.262       .  A
C1219      O1220   1.264       .  A
C1219      C1496   1.474       .  S
C1221      O1223   1.266       .  A
C1221      O1227   1.259       .  A
C1221      C1529   1.479       .  S
C1225      C1486   1.483       .  S
In1228     O1230   2.254       .  S
In1228     O1231   2.269       .  S
In1228     O1239   2.226       .  S
In1228     O1233   2.238       .  S
In1228     O1235   2.248       .  S
In1228     O1236   2.272       .  S
In1228     O1237   2.231       .  S
In1228     O1240   2.248       .  S
C1229      O1235   1.264       .  A
C1229      O1237   1.261       .  A
C1229      C1476   1.475       .  S
O1230      C1238   1.259       .  A
O1231      C1238   1.265       .  A
C1232      O1239   1.262       .  A
C1232      O1233   1.264       .  A
C1232      C1499   1.470       .  S
C1234      O1236   1.265       .  A
C1234      O1240   1.256       .  A
C1234      C1466   1.484       .  S
C1238      C1456   1.484       .  S
In1241     O1243   2.246       .  S
In1241     O1244   2.277       .  S
In1241     O1252   2.248       .  S
In1241     O1246   2.243       .  S
In1241     O1248   2.256       .  S
In1241     O1249   2.267       .  S
In1241     O1250   2.238       .  S
In1241     O1253   2.245       .  S
C1242      O1248   1.265       .  A
C1242      O1250   1.260       .  A
O1243      C1251   1.258       .  A
O1244      C1251   1.264       .  A
C1245      O1252   1.263       .  A
C1245      O1246   1.264       .  A
C1245      C1446   1.480       .  S
C1247      O1249   1.264       .  A
C1247      O1253   1.257       .  A
C1247      C1436   1.481       .  S
C1251      C1426   1.485       .  S
In1254     O1256   2.240       .  S
In1254     O1257   2.279       .  S
In1254     O1265   2.260       .  S
In1254     O1259   2.245       .  S
In1254     O1262   2.297       .  S
In1254     O1263   2.235       .  S
In1254     O1266   2.216       .  S
C1255      O1261   1.265       .  A
C1255      C1406   1.473   1_545  S
O1256      C1264   1.257       .  A
O1257      C1264   1.267       .  A
C1258      O1265   1.264       .  A
C1258      O1259   1.262       .  A
C1258      C1449   1.483       .  S
C1260      O1262   1.268       .  A
C1260      O1266   1.256       .  A
C1260      C1469   1.482       .  S
C1264      C1416   1.484       .  S
In1267     O1269   2.248       .  S
In1267     O1270   2.285       .  S
In1267     O1278   2.254       .  S
In1267     O1272   2.236       .  S
In1267     O1274   2.251       .  S
In1267     O1275   2.279       .  S
In1267     O1276   2.241       .  S
In1267     O1279   2.235       .  S
C1268      O1274   1.264       .  A
C1268      O1276   1.261       .  A
O1269      C1277   1.261       .  A
O1270      C1277   1.268       .  A
C1271      O1278   1.265       .  A
C1271      O1272   1.263       .  A
C1271      C1396   1.481       .  S
C1273      O1275   1.267       .  A
C1273      O1279   1.257       .  A
C1273      C1386   1.482       .  S
C1277      C1519   1.491       .  S
In1280     O1282   2.232       .  S
In1280     O1283   2.295       .  S
In1280     O1291   2.261       .  S
In1280     O1285   2.237       .  S
In1280     O1287   2.254       .  S
In1280     O1288   2.297       .  S
In1280     O1289   2.240       .  S
In1280     O1292   2.235       .  S
C1281      O1287   1.264       .  A
C1281      O1289   1.262       .  A
C1281      C1376   1.481       .  S
O1282      C1290   1.258       .  A
O1283      C1290   1.268       .  A
C1284      O1291   1.265       .  A
C1284      O1285   1.263       .  A
C1284      C1399   1.482       .  S
C1286      O1288   1.265       .  A
C1286      O1292   1.255       .  A
C1286      C1439   1.486       .  S
C1290      C1549   1.487       .  S
In1293     O1295   2.238       .  S
In1293     O1296   2.284       .  S
In1293     O1304   2.266       .  S
In1293     O1298   2.235       .  S
In1293     O1301   2.280       .  S
In1293     O1302   2.254       .  S
In1293     O1305   2.247       .  S
C1294      O1300   1.263       .  A
C1294      C1379   1.482       .  S
O1295      C1303   1.257       .  A
O1296      C1303   1.267       .  A
C1297      O1304   1.265       .  A
C1297      O1298   1.263       .  A
C1297      C1366   1.482       .  S
C1299      O1301   1.265       .  A
C1299      O1305   1.258       .  A
C1299      C1556   1.486       .  S
C1303      C1429   1.488       .  S
In1306     O1308   2.232       .  S
In1306     O1309   2.276       .  S
In1306     O1317   2.263       .  S
In1306     O1311   2.231       .  S
In1306     O1313   2.247       .  S
In1306     O1314   2.282       .  S
In1306     O1315   2.231       .  S
In1306     O1318   2.225       .  S
C1307      O1313   1.265       .  A
C1307      O1315   1.261       .  A
O1308      C1316   1.259       .  A
O1309      C1316   1.268       .  A
C1310      O1317   1.265       .  A
C1310      O1311   1.264       .  A
C1310      C1369   1.481       .  S
C1312      O1314   1.267       .  A
C1312      O1318   1.257       .  A
C1312      C1356   1.482       .  S
C1316      C1419   1.483       .  S
In1319     O1321   2.241       .  S
In1319     O1322   2.273       .  S
In1319     O1330   2.248       .  S
In1319     O1324   2.239       .  S
In1319     O1326   2.257       .  S
In1319     O1327   2.265       .  S
In1319     O1328   2.242       .  S
In1319     O1331   2.243       .  S
C1320      O1326   1.263       .  A
C1320      O1328   1.260       .  A
C1320      C1409   1.479       .  S
O1321      C1329   1.260       .  A
O1322      C1329   1.265       .  A
C1323      O1330   1.263       .  A
C1323      O1324   1.264       .  A
C1323      C1346   1.477       .  S
C1325      O1327   1.264       .  A
C1325      O1331   1.257       .  A
C1325      C1359   1.478       .  S
C1329      C1459   1.485       .  S
In1332     O1334   2.248       .  S
In1332     O1335   2.266       .  S
In1332     O1343   2.261       .  S
In1332     O1337   2.229       .  S
In1332     O1339   2.261       .  S
In1332     O1340   2.283       .  S
In1332     O1341   2.230       .  S
In1332     O1344   2.243       .  S
C1333      O1339   1.264       .  A
C1333      O1341   1.260       .  A
O1334      C1342   1.260       .  A
O1335      C1342   1.267       .  A
C1336      O1343   1.265       .  A
C1336      O1337   1.263       .  A
C1336      C1349   1.480       .  S
C1338      O1340   1.266       .  A
C1338      O1344   1.258       .  A
C1338      C1389   1.485       .  S
C1342      C1489   1.486       .  S
C1345      C1346   1.407       .  A
C1345      C1350   1.403       .  A
C1345      H1351   1.082       .  S
C1346      C1347   1.402       .  A
C1347      C1348   1.395       .  A
C1347      H1352   1.084       .  S
C1348      C1349   1.405       .  A
C1348      H1353   1.081       .  S
C1349      C1350   1.406       .  A
C1350      H1354   1.084       .  S
C1355      C1356   1.408       .  A
C1355      H1361   1.080       .  S
C1356      C1357   1.404       .  A
C1357      H1362   1.086       .  S
C1358      C1359   1.408       .  A
C1358      H1363   1.083       .  S
C1359      C1360   1.401       .  A
C1360      H1364   1.084       .  S
C1365      C1366   1.407       .  A
C1365      C1370   1.405       .  A
C1365      H1371   1.084       .  S
C1366      C1367   1.404       .  A
C1367      C1368   1.395       .  A
C1367      H1372   1.083       .  S
C1368      C1369   1.404       .  A
C1368      H1373   1.082       .  S
C1369      C1370   1.406       .  A
C1370      H1374   1.084       .  S
C1375      C1376   1.405   1_556  A
C1375      C1380   1.399       .  A
C1375      H1381   1.082       .  S
C1376      C1377   1.405       .  A
C1377      C1378   1.402       .  A
C1377      H1382   1.084       .  S
C1378      C1379   1.407   1_554  A
C1378      H1383   1.082       .  S
C1379      C1380   1.404       .  A
C1380      H1384   1.084       .  S
C1385      C1386   1.408       .  A
C1385      C1390   1.402       .  A
C1385      H1391   1.082       .  S
C1386      C1387   1.402       .  A
C1387      C1388   1.403       .  A
C1387      H1392   1.085       .  S
C1388      C1389   1.409       .  A
C1388      H1393   1.081       .  S
C1389      C1390   1.403       .  A
C1390      H1394   1.086       .  S
C1395      C1396   1.405       .  A
C1395      C1400   1.403       .  A
C1395      H1401   1.084       .  S
C1396      C1397   1.405       .  A
C1397      C1398   1.399       .  A
C1397      H1402   1.082       .  S
C1398      C1399   1.405       .  A
C1398      H1403   1.084       .  S
C1399      C1400   1.406       .  A
C1400      H1404   1.081       .  S
C1405      C1406   1.402       .  A
C1405      C1410   1.396       .  A
C1405      H1411   1.085       .  S
C1406      C1407   1.405       .  A
C1407      C1408   1.400       .  A
C1407      H1412   1.082       .  S
C1408      C1409   1.405       .  A
C1408      H1413   1.084       .  S
C1409      C1410   1.406       .  A
C1410      H1414   1.082       .  S
C1415      C1420   1.402       .  A
C1415      H1421   1.084       .  S
C1416      C1417   1.402       .  A
C1417      C1418   1.400       .  A
C1417      H1422   1.083       .  S
C1418      H1423   1.084       .  S
C1419      C1420   1.403       .  A
C1420      H1424   1.084       .  S
C1425      C1426   1.404       .  A
C1425      C1430   1.403       .  A
C1425      H1431   1.084       .  S
C1427      C1428   1.402       .  A
C1427      H1432   1.084       .  S
C1428      C1429   1.403       .  A
C1428      H1433   1.084       .  S
C1430      H1434   1.084       .  S
C1435      C1436   1.402   1_554  A
C1435      H1441   1.084       .  S
C1436      C1437   1.408       .  A
C1437      H1442   1.083       .  S
C1438      C1439   1.404   1_556  A
C1438      H1443   1.084       .  S
C1439      C1440   1.409       .  A
C1440      H1444   1.082       .  S
C1445      C1446   1.405       .  A
C1445      C1450   1.401       .  A
C1445      H1451   1.083       .  S
C1446      C1447   1.405       .  A
C1447      C1448   1.400       .  A
C1447      H1452   1.083       .  S
C1448      C1449   1.406       .  A
C1448      H1453   1.083       .  S
C1449      C1450   1.405       .  A
C1450      H1454   1.083       .  S
C1455      C1456   1.408       .  A
C1455      C1460   1.403       .  A
C1455      H1461   1.084       .  S
C1456      C1457   1.403       .  A
C1457      C1458   1.401       .  A
C1457      H1462   1.083       .  S
C1458      C1459   1.407       .  A
C1458      H1463   1.083       .  S
C1459      C1460   1.405       .  A
C1460      H1464   1.084       .  S
C1465      C1470   1.406       .  A
C1465      H1471   1.081       .  S
C1466      C1467   1.401       .  A
C1467      H1472   1.085       .  S
C1468      C1469   1.407       .  A
C1468      H1473   1.081       .  S
C1469      C1470   1.403       .  A
C1470      H1474   1.085       .  S
C1475      C1476   1.403       .  A
C1475      C1480   1.398       .  A
C1475      H1481   1.084       .  S
C1476      C1477   1.405       .  A
C1477      C1478   1.397       .  A
C1477      H1482   1.082       .  S
C1478      C1479   1.402       .  A
C1478      H1483   1.084       .  S
C1479      C1480   1.406       .  A
C1480      H1484   1.083       .  S
C1485      C1490   1.400       .  A
C1485      H1491   1.084       .  S
C1486      C1487   1.404       .  A
C1487      C1488   1.405       .  A
C1487      H1492   1.084       .  S
C1488      H1493   1.084       .  S
C1489      C1490   1.403       .  A
C1490      H1494   1.083       .  S
C1495      C1496   1.404       .  A
C1495      C1500   1.396       .  A
C1495      H1501   1.084       .  S
C1496      C1497   1.404       .  A
C1497      C1498   1.397       .  A
C1497      H1502   1.082       .  S
C1498      C1499   1.403       .  A
C1498      H1503   1.084       .  S
C1499      C1500   1.404       .  A
C1500      H1504   1.081       .  S
C1505      C1506   1.403       .  A
C1505      C1510   1.400       .  A
C1505      H1511   1.084       .  S
C1506      C1507   1.406       .  A
C1507      C1508   1.397       .  A
C1507      H1512   1.082       .  S
C1508      C1509   1.403       .  A
C1508      H1513   1.084       .  S
C1509      C1510   1.407       .  A
C1510      H1514   1.082       .  S
C1515      C1520   1.405       .  A
C1515      H1521   1.084       .  S
C1516      C1517   1.405       .  A
C1517      C1518   1.406       .  A
C1517      H1522   1.083       .  S
C1518      H1523   1.084       .  S
C1519      C1520   1.404       .  A
C1520      H1524   1.083       .  S
C1525      C1526   1.403       .  A
C1525      C1530   1.400       .  A
C1525      H1531   1.085       .  S
C1526      C1527   1.408       .  A
C1527      C1528   1.402       .  A
C1527      H1532   1.082       .  S
C1528      C1529   1.403       .  A
C1528      H1533   1.086       .  S
C1529      C1530   1.406       .  A
C1530      H1534   1.081       .  S
C1535      C1536   1.405       .  A
C1535      C1540   1.402       .  A
C1535      H1541   1.084       .  S
C1536      C1537   1.405       .  A
C1537      C1538   1.396       .  A
C1537      H1542   1.082       .  S
C1538      C1539   1.402       .  A
C1538      H1543   1.084       .  S
C1539      C1540   1.407       .  A
C1540      H1544   1.082       .  S
C1545      C1546   1.403       .  A
C1545      C1550   1.402       .  A
C1545      H1551   1.084       .  S
C1546      C1547   1.411       .  A
C1547      C1548   1.405       .  A
C1547      H1552   1.084       .  S
C1548      C1549   1.403       .  A
C1548      H1553   1.084       .  S
C1549      C1550   1.409       .  A
C1550      H1554   1.084       .  S
C1555      C1556   1.404   1_554  A
C1555      H1561   1.084       .  S
C1556      C1557   1.408       .  A
C1557      H1562   1.083       .  S
C1558      C1559   1.403   1_556  A
C1558      H1563   1.084       .  S
C1559      C1560   1.408       .  A
C1560      H1564   1.083       .  S
C1565      C1566   1.405       .  A
C1565      C1570   1.402       .  A
C1565      H1571   1.084       .  S
C1566      C1567   1.404       .  A
C1567      C1568   1.394       .  A
C1567      H1572   1.083       .  S
C1568      C1569   1.402       .  A
C1568      H1573   1.083       .  S
C1569      C1570   1.406       .  A
C1570      H1574   1.083       .  S
C1575      C1576   1.406   1_556  A
C1575      C1580   1.400       .  A
C1575      H1581   1.082       .  S
C1576      C1577   1.403       .  A
C1577      C1578   1.398       .  A
C1577      H1582   1.084       .  S
C1578      C1579   1.406   1_554  A
C1578      H1583   1.082       .  S
C1579      C1580   1.404       .  A
C1580      H1584   1.084       .  S
