geometry optimzed in LAMMPS
_audit_creation_date              2020-12-01 
_audit_creation_method            'lammps2cif' 
_symmetry_space_group_name_H-M    'P1' 
_symmetry_Int_Tables_number       1 
_symmetry_cell_setting            triclinic 
loop_ 
_symmetry_equiv_pos_as_xyz 
  x,y,z 
_cell_length_a                    42.44827089 
_cell_length_b                    42.34285504200706 
_cell_length_c                    42.292633928172144 
_cell_angle_alpha                 90.4472228895788 
_cell_angle_beta                  90.19208404710247 
_cell_angle_gamma                 90.35204947118073 
loop_ 
_atom_site_label 
_atom_site_type_symbol 
_atom_site_fract_x 
_atom_site_fract_y 
_atom_site_fract_z 
_atom_site_charge 
N1          N  0.17178643  0.58865145  0.06087461    -0.26100
N2          N  0.18639359  0.57356019  0.08385552    -0.34000
C3          C  0.17032375  0.54712186  0.09053786     0.02200
C4          C  0.14404670  0.54546685  0.07123389     0.08300
C5          C  0.14574053  0.57219850  0.05258634    -0.04800
H6          H  0.17524764  0.53232171  0.11068100     0.08900
H7          H  0.12820900  0.58032268  0.03595931     0.10100
Cu8        Cu  0.21901156  0.59373170  0.11422369     0.44200
Cu9        Cu  0.18422933  0.63386734  0.04691649     0.42000
Cu10       Cu  0.21651011  0.67698764  0.11402267     0.43900
N11         N  0.22676475  0.62049671  0.15449336    -0.33500
N12         N  0.22361312  0.65148597  0.15477509    -0.27700
C13         C  0.22116190  0.66162040  0.18484420    -0.03800
C14         C  0.22283725  0.63566691  0.20446988     0.08400
C15         C  0.22657944  0.61001813  0.18439699     0.02200
H16         H  0.21595634  0.68569267  0.19170673     0.09800
H17         H  0.22524859  0.58535877  0.19081127     0.08900
N18         N  0.21166876  0.69567617  0.06936365    -0.34900
N19         N  0.20034575  0.68012136  0.04456233    -0.27100
C20         C  0.20276958  0.69859914  0.01892323    -0.02300
C21         C  0.21647853  0.72703473  0.02812231     0.06300
C22         C  0.22157641  0.72431740  0.06028137     0.04400
H23         H  0.19626199  0.69133661  0.99519461     0.09500
H24         H  0.23225290  0.74162724  0.07598178     0.08300
N25         N  0.97928292  0.41547969  0.25955749    -0.26100
N26         N  0.00772988  0.41564776  0.24703638    -0.34000
C27         C  0.02935623  0.41550820  0.27025067     0.02200
C28         C  0.01393662  0.41540104  0.29904939     0.08300
C29         C  0.98209658  0.41513565  0.29131556    -0.04800
H30         H  0.05450166  0.41640226  0.26629840     0.08900
H31         H  0.96247077  0.41639552  0.30751653     0.10100
Cu32       Cu  0.01620583  0.42165912  0.19945581     0.44200
Cu33       Cu  0.93887159  0.42008130  0.23197539     0.42000
Cu34       Cu  0.95235729  0.44577078  0.14982044     0.43900
N35         N  0.02230578  0.44040568  0.15502628    -0.33500
N36         N  0.99910414  0.45060030  0.13700088    -0.27700
C37         C  0.01136950  0.46664323  0.11252367    -0.03800
C38         C  0.04393221  0.46633274  0.11534694     0.08400
C39         C  0.04986327  0.44940861  0.14254155     0.02200
H40         H  0.99755667  0.47888237  0.09497736     0.09800
H41         H  0.07242718  0.44631635  0.15403703     0.08900
N42         N  0.90848166  0.44070833  0.17042437    -0.34900
N43         N  0.90351489  0.43123757  0.19973708    -0.27100
C44         C  0.87254218  0.43320424  0.20595435    -0.02300
C45         C  0.85725972  0.44466657  0.17940744     0.06300
C46         C  0.88088052  0.44898236  0.15734713     0.04400
H47         H  0.86219045  0.42771607  0.22859585     0.09500
H48         H  0.87857399  0.45929900  0.13414300     0.08300
N49         N  0.19521692  0.45580730  0.53188838    -0.26100
N50         N  0.18210598  0.47219934  0.50895131    -0.34000
C51         C  0.20371958  0.49207587  0.49698167     0.02200
C52         C  0.23187105  0.48782267  0.51304865     0.08300
C53         C  0.22539896  0.46490557  0.53525732    -0.04800
H54         H  0.20005419  0.50611858  0.47604853     0.08900
H55         H  0.24237648  0.45285142  0.54991946     0.10100
Cu56       Cu  0.13932647  0.46008731  0.48843896     0.44200
Cu57       Cu  0.17524534  0.41568564  0.55077161     0.42000
Cu58       Cu  0.11090402  0.38127259  0.50583494     0.43900
N59         N  0.10479881  0.43691508  0.46231035    -0.33500
N60         N  0.09507046  0.40779856  0.46790936    -0.27700
C61         C  0.07607577  0.39831908  0.44408609    -0.03800
C62         C  0.07366535  0.42255071  0.42246143     0.08400
C63         C  0.09226058  0.44665669  0.43489426     0.02200
H64         H  0.06647845  0.37481194  0.44151700     0.09800
H65         H  0.09759851  0.46914090  0.42424406     0.08900
N66         N  0.13155301  0.35983039  0.54469630    -0.34900
N67         N  0.15509133  0.37252106  0.56095404    -0.27100
C68         C  0.16447462  0.35218977  0.58324004    -0.02300
C69         C  0.14584938  0.32524177  0.58121666     0.06300
C70         C  0.12516019  0.33109933  0.55645082     0.04400
H71         H  0.18442401  0.35632748  0.59870659     0.09500
H72         H  0.10704648  0.31555233  0.54718537     0.08300
N73         N  0.40564301  0.52883913  0.46024332    -0.26100
N74         N  0.40355113  0.50094430  0.44605272    -0.34000
C75         C  0.37578933  0.48754546  0.45343612     0.02200
C76         C  0.35983442  0.50782383  0.47341916     0.08300
C77         C  0.37946912  0.53367655  0.47741059    -0.04800
H78         H  0.36709185  0.46550691  0.44353070     0.08900
H79         H  0.37401844  0.55546321  0.48970292     0.10100
Cu80       Cu  0.43517744  0.48439834  0.41265167     0.44200
Cu81       Cu  0.44021319  0.56200060  0.45043029     0.42000
Cu82       Cu  0.48405905  0.54431816  0.37904829     0.43900
N83         N  0.46113738  0.47736342  0.37183566    -0.33500
N84         N  0.47776140  0.50007911  0.35847520    -0.27700
C85         C  0.48716196  0.49023594  0.32971000    -0.03800
C86         C  0.47615018  0.45970021  0.32486165     0.08400
C87         C  0.45988243  0.45228346  0.35215232     0.02200
H88         H  0.49986920  0.50473772  0.31303691     0.09800
H89         H  0.44590577  0.43126564  0.35624922     0.08900
N90         N  0.48785400  0.58647941  0.40412881    -0.34900
N91         N  0.47231837  0.59289908  0.43041682    -0.27100
C92         C  0.47951639  0.62248217  0.43995286    -0.02300
C93         C  0.50052212  0.63533946  0.41853389     0.06300
C94         C  0.50530849  0.61174942  0.39623406     0.04400
H95         H  0.46921609  0.63415264  0.46024631     0.09500
H96         H  0.52018961  0.61286824  0.37555964     0.08300
N97         N  0.16170666  0.05619963  0.61598432    -0.26100
N98         N  0.13910318  0.07551751  0.62498522    -0.34000
C99         C  0.11607209  0.07507067  0.60323876     0.02200
C100        C  0.12460971  0.05498095  0.57883957     0.08300
C101        C  0.15362299  0.04303112  0.58801506    -0.04800
H102        H  0.09721785  0.09214373  0.60262008     0.08900
H103        H  0.16930810  0.02874184  0.57386676     0.10100
Cu104      Cu  0.14628280  0.11248610  0.65605409     0.44200
Cu105      Cu  0.20568856  0.05652895  0.63749937     0.42000
Cu106      Cu  0.22666022  0.13346135  0.67142478     0.43900
N107        N  0.16157813  0.15849620  0.66095072    -0.33500
N108        N  0.19138964  0.16669664  0.66515556    -0.27700
C109        C  0.19465041  0.19768340  0.65885183    -0.03800
C110        C  0.16553428  0.20924743  0.64980249     0.08400
C111        C  0.14518841  0.18376301  0.65158609     0.02200
H112        H  0.21702697  0.20996448  0.65750141     0.09800
H113        H  0.12102610  0.18282603  0.64338330     0.08900
N114        N  0.25489409  0.09360293  0.67430031    -0.34900
N115        N  0.24708250  0.06569083  0.66226710    -0.27100
C116        C  0.26992119  0.04491188  0.66898750    -0.02300
C117        C  0.29334253  0.06041686  0.68600671     0.06300
C118        C  0.28301642  0.09129456  0.68883771     0.04400
H119        H  0.26962511  0.02039041  0.66161106     0.09500
H120        H  0.29477401  0.11059841  0.70104227     0.08300
N121        N  0.03310233  0.22808812  0.38045413    -0.26100
N122        N  0.01896499  0.21302613  0.40371024    -0.34000
C123        C  0.00706312  0.23426629  0.42405824     0.02200
C124        C  0.01413713  0.26417654  0.41325744     0.08300
C125        C  0.03080903  0.25934921  0.38559665    -0.04800
H126        H  0.99831498  0.22845093  0.44731362     0.08900
H127        H  0.04365903  0.27704118  0.37245796     0.10100
Cu128      Cu  0.02695466  0.16608647  0.41349033     0.44200
Cu129      Cu  0.06080865  0.20543145  0.34730188     0.42000
Cu130      Cu  0.08311315  0.12467729  0.36485148     0.43900
N131        N  0.05066354  0.12619249  0.42782775    -0.33500
N132        N  0.07160947  0.11123970  0.41031795    -0.27700
C133        C  0.08642402  0.08980258  0.42822500    -0.03800
C134        C  0.07439082  0.09148853  0.45863517     0.08400
C135        C  0.05168868  0.11481870  0.45735012     0.02200
H136        H  0.10562851  0.07528617  0.41997879     0.09800
H137        H  0.03879948  0.12479519  0.47701955     0.08900
N138        N  0.09329925  0.14700627  0.32272246    -0.34900
N139        N  0.08542237  0.17649668  0.31663425    -0.27100
C140        C  0.09539517  0.18397780  0.28754647    -0.02300
C141        C  0.11027466  0.15796006  0.27459233     0.06300
C142        C  0.10860033  0.13494962  0.29763535     0.04400
H143        H  0.09236609  0.20688458  0.27685419     0.09500
H144        H  0.11749634  0.11110181  0.29623787     0.08300
N145        N  0.34633167  0.93488274  0.89559546    -0.26100
N146        N  0.33707417  0.96064556  0.88086417    -0.34000
C147        C  0.36237051  0.97886993  0.87494736     0.02200
C148        C  0.38883567  0.96397848  0.88668506     0.08300
C149        C  0.37775369  0.93609069  0.89956807    -0.04800
H150        H  0.36127460  0.00220869  0.86478639     0.08900
H151        H  0.39131081  0.91845052  0.91189080     0.10100
Cu152      Cu  0.29026740  0.97239984  0.87386962     0.44200
Cu153      Cu  0.31561247  0.90083485  0.91243044     0.42000
Cu154      Cu  0.23230523  0.91813610  0.90276895     0.43900
N155        N  0.24288718  0.98323271  0.87760940    -0.33500
N156        N  0.22145756  0.96330056  0.88825431    -0.27700
C157        C  0.19494629  0.97923876  0.89487353    -0.03800
C158        C  0.19999440  0.01099751  0.88858108     0.08400
C159        C  0.23060052  0.01235497  0.87721095     0.02200
H160        H  0.17485325  0.96889224  0.90663663     0.09800
H161        H  0.24442179  0.03351593  0.87331851     0.08900
N162        N  0.24938568  0.87789016  0.92408005    -0.34900
N163        N  0.27961644  0.87167820  0.92796487    -0.27100
C164        C  0.28246060  0.84474087  0.94431264    -0.02300
C165        C  0.25253388  0.83346333  0.95112081     0.06300
C166        C  0.23220530  0.85515423  0.93788511     0.04400
H167        H  0.30473477  0.83434119  0.95085026     0.09500
H168        H  0.20676683  0.85520029  0.93922988     0.08300
N169        N  0.18559891  0.14352763  0.00651570    -0.26100
N170        N  0.21231919  0.14705965  0.99099354    -0.34000
C171        C  0.20928081  0.13375192  0.96225890     0.02200
C172        C  0.17951466  0.12041465  0.95960248     0.08300
C173        C  0.16506186  0.12735496  0.98816497    -0.04800
H174        H  0.22890532  0.12951169  0.94654877     0.08900
H175        H  0.14279086  0.11811954  0.99645672     0.10100
Cu176      Cu  0.25504309  0.15749364  0.01259007     0.44200
Cu177      Cu  0.18140526  0.15279968  0.05442407     0.42000
Cu178      Cu  0.25545820  0.16325932  0.09723399     0.43900
N179        N  0.29561447  0.15343465  0.03961879    -0.33500
N180        N  0.29579411  0.15584950  0.07076416    -0.27700
C181        C  0.32391191  0.14637838  0.08174714    -0.03800
C182        C  0.34228963  0.13690067  0.05633401     0.08400
C183        C  0.32354239  0.14208682  0.02997863     0.02200
H184        H  0.32950050  0.14428966  0.10659587     0.09800
H185        H  0.32850330  0.13496592  0.00589500     0.08900
N186        N  0.21160530  0.16123858  0.11862353    -0.34900
N187        N  0.18472750  0.15774503  0.10304400    -0.27100
C188        C  0.16098565  0.15578689  0.12389917    -0.02300
C189        C  0.17353842  0.15782724  0.15406841     0.06300
C190        C  0.20568010  0.16130272  0.14982421     0.04400
H191        H  0.13652824  0.15206847  0.11753411     0.09500
H192        H  0.22351805  0.16353863  0.16805039     0.08300
N193        N  0.50868436  0.29743250  0.09904346    -0.26100
N194        N  0.49519863  0.29783919  0.07084549    -0.34000
C195        C  0.51234175  0.28049477  0.05060275     0.02200
C196        C  0.53772396  0.26831787  0.06688004     0.08300
C197        C  0.53460038  0.27930588  0.09761438    -0.04800
H198        H  0.50568548  0.27540172  0.02636398     0.08900
H199        H  0.54956899  0.27390971  0.11758018     0.10100
Cu200      Cu  0.45167292  0.31759350  0.06238434     0.44200
Cu201      Cu  0.49043900  0.32147614  0.13777454     0.42000
Cu202      Cu  0.41497163  0.36125424  0.12542507     0.43900
N203        N  0.40538557  0.33222055  0.06111665    -0.33500
N204        N  0.39140053  0.34793435  0.08418020    -0.27700
C205        C  0.36092244  0.35218947  0.07632105    -0.03800
C206        C  0.35566019  0.33857384  0.04678748     0.08400
C207        C  0.38440559  0.32606913  0.03806969     0.02200
H208        H  0.34395828  0.36434475  0.09097957     0.09800
H209        H  0.38959590  0.31263681  0.01687537     0.08900
N210        N  0.44388213  0.36818756  0.16474844    -0.34900
N211        N  0.47045387  0.35282311  0.16985990    -0.27100
C212        C  0.48314816  0.36291252  0.19738115    -0.02300
C213        C  0.46388755  0.38601392  0.20998896     0.06300
C214        C  0.43923469  0.38871331  0.18868126     0.04400
H215        H  0.50541626  0.35494641  0.20682713     0.09500
H216        H  0.41938907  0.40453976  0.19037656     0.08300
N217        N  0.55473378  0.05090609  0.89390256    -0.26100
N218        N  0.54643511  0.05618509  0.92354544    -0.34000
C219        C  0.51866689  0.04191005  0.92903474     0.02200
C220        C  0.50893090  0.02691769  0.90146137     0.08300
C221        C  0.53236213  0.03317761  0.87963062    -0.04800
H222        H  0.50610190  0.04323424  0.95115350     0.08900
H223        H  0.53327044  0.02526594  0.85527944     0.10100
Cu224      Cu  0.57138734  0.08491627  0.95456216     0.44200
Cu225      Cu  0.59589459  0.06850517  0.87441646     0.42000
Cu226      Cu  0.63999745  0.12377522  0.92433313     0.43900
N227        N  0.59365700  0.12211426  0.97752721    -0.33500
N228        N  0.61828627  0.13723012  0.96593789    -0.27700
C229        C  0.62302892  0.16399298  0.98267658    -0.03800
C230        C  0.60022318  0.16578247  0.00600076     0.08400
C231        C  0.58221221  0.13865740  0.00206842     0.02200
H232        H  0.64031262  0.18184574  0.97675826     0.09800
H233        H  0.56028126  0.13315126  0.01383275     0.08900
N234        N  0.65492714  0.10826847  0.88044312    -0.34900
N235        N  0.63879050  0.08850038  0.86216923    -0.27100
C236        C  0.65459092  0.08414111  0.83504166    -0.02300
C237        C  0.68207727  0.10199360  0.83625040     0.06300
C238        C  0.68141743  0.11697936  0.86545442     0.04400
H239        H  0.64614418  0.06966972  0.81556546     0.09500
H240        H  0.69884653  0.13303906  0.87526122     0.08300
N241        N  0.50637670  0.92966903  0.81238726    -0.26100
N242        N  0.53315463  0.91829078  0.80131770    -0.34000
C243        C  0.54970897  0.90592854  0.82528936     0.02200
C244        C  0.53289227  0.91007827  0.85288966     0.08300
C245        C  0.50556807  0.92540008  0.84391815    -0.04800
H246        H  0.57358255  0.89734753  0.82327444     0.08900
H247        H  0.48734797  0.93436349  0.85935719     0.10100
Cu248      Cu  0.55024483  0.92676809  0.75627265     0.44200
Cu249      Cu  0.47409439  0.95368274  0.78450727     0.42000
Cu250      Cu  0.50540056  0.97992351  0.70896204     0.43900
N251        N  0.56730946  0.94654071  0.71494774    -0.33500
N252        N  0.55078077  0.96623387  0.69751617    -0.27700
C253        C  0.56934924  0.97795381  0.67466204    -0.03800
C254        C  0.59919351  0.96534462  0.67805735     0.08400
C255        C  0.59694316  0.94543976  0.70385190     0.02200
H256        H  0.56236454  0.99631615  0.65848108     0.09800
H257        H  0.61588118  0.93256901  0.71494444     0.08900
N258        N  0.46031434  0.98971875  0.72481645    -0.34900
N259        N  0.44832032  0.97918102  0.75160031    -0.27100
C260        C  0.41803784  0.98829925  0.75357516    -0.02300
C261        C  0.41090628  0.00581254  0.72700401     0.06300
C262        C  0.43825260  0.00625901  0.70937350     0.04400
H263        H  0.40249212  0.98286561  0.77303431     0.09500
H264        H  0.44164834  0.01713375  0.68656200     0.08300
N265        N  0.73120555  0.06728772  0.60002920    -0.26100
N266        N  0.75118533  0.05424283  0.61995361    -0.34000
C267        C  0.73783337  0.02838821  0.63241231     0.02200
C268        C  0.70743891  0.02523333  0.62062693     0.08300
C269        C  0.70435987  0.05015122  0.59962585    -0.04800
H270        H  0.74832497  0.01525247  0.65149783     0.08900
H271        H  0.68294045  0.05757948  0.58801182     0.10100
Cu272      Cu  0.78666285  0.07940003  0.64243578     0.44200
Cu273      Cu  0.73889093  0.11206044  0.58158270     0.42000
Cu274      Cu  0.77382340  0.16253320  0.64113076     0.43900
N275        N  0.78578457  0.10711105  0.68276151    -0.33500
N276        N  0.77748381  0.13710413  0.68265809    -0.27700
C277        C  0.76573379  0.14471502  0.71122765    -0.03800
C278        C  0.76634153  0.11806624  0.73018089     0.08400
C279        C  0.78001900  0.09500724  0.71138799     0.02200
H280        H  0.75379086  0.16666069  0.71632206     0.09800
H281        H  0.78193258  0.07014044  0.71652371     0.08900
N282        N  0.76814357  0.17594834  0.59440623    -0.34900
N283        N  0.75494039  0.15762378  0.57257768    -0.27100
C284        C  0.75530674  0.17279145  0.54473934    -0.02300
C285        C  0.76958689  0.20202087  0.54921377     0.06300
C286        C  0.77742362  0.20314512  0.58103169     0.04400
H287        H  0.74663298  0.16286678  0.52270588     0.09500
H288        H  0.78895822  0.22232837  0.59363403     0.08300
N289        N  0.04832642  0.42175674  0.66059825    -0.26100
N290        N  0.06468027  0.40229000  0.64260777    -0.34000
C291        C  0.08486028  0.38616390  0.66079653     0.02200
C292        C  0.08092858  0.39576100  0.69196300     0.08300
C293        C  0.05759462  0.41852297  0.69084274    -0.04800
H294        H  0.10063653  0.36822003  0.65192509     0.08900
H295        H  0.04708072  0.43081757  0.71064474     0.10100
Cu296      Cu  0.05593911  0.39604741  0.59487825     0.44200
Cu297      Cu  0.01363574  0.45062345  0.64246719     0.42000
Cu298      Cu  0.99897179  0.44588912  0.55674598     0.43900
N299        N  0.03907092  0.38853267  0.54955161    -0.33500
N300        N  0.01857698  0.40685236  0.53513553    -0.27700
C301        C  0.01058808  0.39360360  0.50719904    -0.03800
C302        C  0.02665380  0.36534600  0.50406633     0.08400
C303        C  0.04440206  0.36303894  0.53144446     0.02200
H304        H  0.99358926  0.40339154  0.49100872     0.09800
H305        H  0.05856339  0.34331157  0.53877949     0.08900
N306        N  0.97961333  0.47919325  0.58673757    -0.34900
N307        N  0.98414762  0.48034299  0.61768345    -0.27100
C308        C  0.96698028  0.50397096  0.62995143    -0.02300
C309        C  0.95102541  0.51848565  0.60554490     0.06300
C310        C  0.95955810  0.50211302  0.57851510     0.04400
H311        H  0.96621424  0.51002970  0.65483047     0.09500
H312        H  0.95093238  0.50578018  0.55472857     0.08300
N313        N  0.15507144  0.32701915  0.85043239    -0.26100
N314        N  0.13566416  0.30344493  0.84341843    -0.34000
C315        C  0.12050689  0.30975483  0.81634969     0.02200
C316        C  0.13067583  0.33877135  0.80551551     0.08300
C317        C  0.15252906  0.34922203  0.82783983    -0.04800
H318        H  0.10304567  0.29436788  0.80552827     0.08900
H319        H  0.16596911  0.37100351  0.82739874     0.10100
Cu320      Cu  0.12972727  0.26356410  0.87057344     0.44200
Cu321      Cu  0.18381393  0.32647792  0.89062306     0.42000
Cu322      Cu  0.16623038  0.26169772  0.94618998     0.43900
N323        N  0.12528278  0.22581900  0.90087392    -0.33500
N324        N  0.13799505  0.22529638  0.92938626    -0.27700
C325        C  0.13147152  0.19733554  0.94288360    -0.03800
C326        C  0.11398484  0.17934746  0.92160011     0.08400
C327        C  0.11045037  0.19825368  0.89529343     0.02200
H328        H  0.13983112  0.19025868  0.96593772     0.09800
H329        H  0.09807199  0.19242966  0.87360015     0.08900
N330        N  0.20021709  0.29621663  0.95349400    -0.34900
N331        N  0.20762444  0.31868352  0.93318049    -0.27100
C332        C  0.23317363  0.33433473  0.94415606    -0.02300
C333        C  0.24204074  0.32124059  0.97278024     0.06300
C334        C  0.22054521  0.29721107  0.97790051     0.04400
H335        H  0.24476866  0.35344719  0.93188449     0.09500
H336        H  0.22073703  0.28041870  0.99704797     0.08300
N337        N  0.10236184  0.65226232  0.45444818    -0.26100
N338        N  0.08664256  0.63170210  0.47181671    -0.34000
C339        C  0.06862060  0.64751350  0.49259749     0.02200
C340        C  0.07290701  0.67952981  0.48781959     0.08300
C341        C  0.09468827  0.68163020  0.46365707    -0.04800
H342        H  0.05121397  0.63655384  0.50766065     0.08900
H343        H  0.10273050  0.70287303  0.45206628     0.10100
Cu344      Cu  0.08276731  0.58411245  0.46083863     0.44200
Cu345      Cu  0.12868540  0.64056698  0.41499949     0.42000
Cu346      Cu  0.11775221  0.56137672  0.38673354     0.43900
N347        N  0.06901137  0.54443207  0.43531666    -0.33500
N348        N  0.08056328  0.53729833  0.40720765    -0.27700
C349        C  0.06221467  0.51505356  0.39353684    -0.03800
C350        C  0.03824093  0.50735895  0.41427792     0.08400
C351        C  0.04338750  0.52642660  0.44055995     0.02200
H352        H  0.06538850  0.50617839  0.36973269     0.09800
H353        H  0.02802269  0.52906626  0.46075604     0.08900
N354        N  0.14866561  0.59305237  0.36621498    -0.34900
N355        N  0.15141109  0.62280535  0.37552969    -0.27100
C356        C  0.16883794  0.63866439  0.35433500    -0.02300
C357        C  0.17796910  0.61764484  0.33096420     0.06300
C358        C  0.16477908  0.58898655  0.33921802     0.04400
H359        H  0.17316801  0.66387001  0.35502738     0.09500
H360        H  0.16459996  0.56749277  0.32521034     0.08300
N361        N  0.97208505  0.81469145  0.56716369    -0.26100
N362        N  0.95517279  0.81383646  0.54094495    -0.34000
C363        C  0.96729205  0.79200917  0.52129417     0.02200
C364        C  0.99295130  0.77837274  0.53612568     0.08300
C365        C  0.99528148  0.79339530  0.56516948    -0.04800
H366        H  0.95746798  0.78579646  0.49842951     0.08900
H367        H  0.01247147  0.78918536  0.58357625     0.10100
Cu368      Cu  0.91478315  0.84038009  0.53541183     0.44200
Cu369      Cu  0.96136100  0.84334047  0.60484640     0.42000
Cu370      Cu  0.88513051  0.88183389  0.60545597     0.43900
N371        N  0.87202808  0.86354877  0.53766664    -0.33500
N372        N  0.86089427  0.87810299  0.56299490    -0.27700
C373        C  0.83171637  0.88859067  0.55662690    -0.03800
C374        C  0.82406779  0.88017455  0.52577121     0.08400
C375        C  0.85027000  0.86431477  0.51462172     0.02200
H376        H  0.81715277  0.90110030  0.57343815     0.09800
H377        H  0.85287910  0.85272158  0.49191351     0.08900
N378        N  0.91667069  0.88328437  0.64288336    -0.34900
N379        N  0.94474926  0.87002978  0.64176288    -0.27100
C380        C  0.95999323  0.87552379  0.66902054    -0.02300
C381        C  0.94061913  0.89300606  0.68842522     0.06300
C382        C  0.91319690  0.89743296  0.67124516     0.04400
H383        H  0.98316317  0.86658015  0.67458961     0.09500
H384        H  0.89240809  0.91011927  0.67864371     0.08300
N385        N  0.70052742  0.60016988  0.52971776    -0.26100
N386        N  0.72869240  0.60700896  0.51834953    -0.34000
C387        C  0.73163732  0.59377554  0.48959098     0.02200
C388        C  0.70433081  0.57716903  0.48254919     0.08300
C389        C  0.68502077  0.58186983  0.50855145    -0.04800
H390        H  0.75367857  0.59233419  0.47688665     0.08900
H391        H  0.66273682  0.57027315  0.51312573     0.10100
Cu392      Cu  0.76606572  0.62214556  0.54604993     0.44200
Cu393      Cu  0.68754236  0.61033331  0.57605952     0.42000
Cu394      Cu  0.75328081  0.62530314  0.62958335     0.43900
N395        N  0.80189450  0.61864859  0.57901225    -0.33500
N396        N  0.79720558  0.61950600  0.60982471    -0.27700
C397        C  0.82367623  0.61063898  0.62471721    -0.03800
C398        C  0.84614873  0.60324929  0.60213029     0.08400
C399        C  0.83137254  0.60886008  0.57342341     0.02200
H400        H  0.82543754  0.60779068  0.65002836     0.09800
H401        H  0.84010138  0.60298653  0.55012675     0.08900
N402        N  0.70664762  0.62739681  0.64290848    -0.34900
N403        N  0.68257863  0.62214255  0.62362033    -0.27100
C404        C  0.65565686  0.62572750  0.63992623    -0.02300
C405        C  0.66321598  0.63348652  0.67096463     0.06300
C406        C  0.69578000  0.63427986  0.67190661     0.04400
H407        H  0.63234720  0.62240028  0.62998953     0.09500
H408        H  0.71062131  0.63987468  0.69204811     0.08300
N409        N  0.88258592  0.40391754  0.39900694    -0.26100
N410        N  0.87179305  0.42996443  0.38589852    -0.34000
C411        C  0.89573881  0.45054252  0.38229116     0.02200
C412        C  0.92292782  0.43697416  0.39394460     0.08300
C413        C  0.91370725  0.40740525  0.40441883    -0.04800
H414        H  0.89313336  0.47443393  0.37382165     0.08900
H415        H  0.92830881  0.39013368  0.41606795     0.10100
Cu416      Cu  0.82429908  0.43883609  0.37910694     0.44200
Cu417      Cu  0.85352562  0.36644083  0.41188919     0.42000
Cu418      Cu  0.76890970  0.38046790  0.40586320     0.43900
N419        N  0.77690552  0.44785818  0.38607141    -0.33500
N420        N  0.75646292  0.42655926  0.39602992    -0.27700
C421        C  0.73027067  0.44132810  0.40593543    -0.03800
C422        C  0.73454322  0.47368498  0.40257356     0.08400
C423        C  0.76429736  0.47667208  0.38941115     0.02200
H424        H  0.71109076  0.42947230  0.41779452     0.09800
H425        H  0.77763410  0.49833891  0.38678784     0.08900
N426        N  0.78841782  0.34037841  0.42546310    -0.34900
N427        N  0.81903027  0.33521950  0.42763349    -0.27100
C428        C  0.82371467  0.30940224  0.44530390    -0.02300
C429        C  0.79469711  0.29795297  0.45523799     0.06300
C430        C  0.77289581  0.31815316  0.44188542     0.04400
H431        H  0.84673529  0.30062151  0.45161730     0.09500
H432        H  0.74774134  0.31830900  0.44585294     0.08300
N433        N  0.94238942  0.96695836  0.97149752    -0.26100
N434        N  0.93538408  0.94003421  0.95693563    -0.34000
C435        C  0.90914484  0.92776193  0.96969293     0.02200
C436        C  0.89886955  0.94792048  0.99332637     0.08300
C437        C  0.92052662  0.97255109  0.99381460    -0.04800
H438        H  0.89723123  0.90678599  0.96090384     0.08900
H439        H  0.92002494  0.99342598  0.00870866     0.10100
Cu440      Cu  0.95725034  0.92373044  0.91643926     0.44200
Cu441      Cu  0.97998411  0.99623818  0.95909854     0.42000
Cu442      Cu  0.02137863  0.97184895  0.88984268     0.43900
N443        N  0.97332004  0.92323239  0.87043235    -0.33500
N444        N  0.99616710  0.94196502  0.86066320    -0.27700
C445        C  0.99697353  0.94147020  0.82899316    -0.03800
C446        C  0.97359199  0.92116556  0.81802997     0.08400
C447        C  0.95923390  0.90981748  0.84515733     0.02200
H448        H  0.01207142  0.95664810  0.81518841     0.09800
H449        H  0.93912277  0.89414129  0.84665596     0.08900
N450        N  0.03579865  0.00928438  0.91757136    -0.34900
N451        N  0.01960793  0.01980981  0.94198887    -0.27100
C452        C  0.03191926  0.04774903  0.95128350    -0.02300
C453        C  0.05724947  0.05516810  0.93176035     0.06300
C454        C  0.05901557  0.02976590  0.91091946     0.04400
H455        H  0.02173243  0.06239320  0.96957285     0.09500
H456        H  0.07494474  0.02664293  0.89131443     0.08300
N457        N  0.73427137  0.91024204  0.06992547    -0.26100
N458        N  0.72401189  0.92874373  0.04705967    -0.34000
C459        C  0.74885748  0.94386558  0.03431735     0.02200
C460        C  0.77599920  0.93410698  0.04959107     0.08300
C461        C  0.76573121  0.91302046  0.07217683    -0.04800
H462        H  0.74764199  0.95814878  0.01325191     0.08900
H463        H  0.78026555  0.89866944  0.08735724     0.10100
Cu464      Cu  0.67864742  0.92643867  0.02809939     0.44200
Cu465      Cu  0.70770862  0.87591095  0.09224945     0.42000
Cu466      Cu  0.63650747  0.85641286  0.05212040     0.43900
N467        N  0.63780319  0.90998814  0.00581501    -0.33500
N468        N  0.62399016  0.88310166  0.01356958    -0.27700
C469        C  0.60136151  0.87614246  0.99234029    -0.03800
C470        C  0.60012688  0.90020139  0.97054744     0.08400
C471        C  0.62361765  0.92129957  0.97975234     0.02200
H472        H  0.58720078  0.85484070  0.99254542     0.09800
H473        H  0.63094346  0.94239670  0.96744604     0.08900
N474        N  0.65272492  0.83156467  0.09053011    -0.34900
N475        N  0.67949963  0.83815695  0.10518663    -0.27100
C476        C  0.68494714  0.81588461  0.12704590    -0.02300
C477        C  0.66004309  0.79457670  0.12630137     0.06300
C478        C  0.64009433  0.80531073  0.10288366     0.04400
H479        H  0.70574922  0.81492992  0.14184612     0.09500
H480        H  0.61878916  0.79395881  0.09429077     0.08300
N481        N  0.61716983  0.89544675  0.33886675    -0.26100
N482        N  0.59078983  0.87904864  0.33526390    -0.34000
C483        C  0.57917354  0.88397885  0.30619424     0.02200
C484        C  0.59904418  0.90459111  0.29065382     0.08300
C485        C  0.62283948  0.91163796  0.31212562    -0.04800
H486        H  0.55834808  0.87247151  0.29665409     0.08900
H487        H  0.64357494  0.92599165  0.30800974     0.10100
Cu488      Cu  0.57363739  0.84724901  0.36788774     0.44200
Cu489      Cu  0.64547994  0.89141959  0.37880089     0.42000
Cu490      Cu  0.62016462  0.83246699  0.43691977     0.43900
N491        N  0.56540431  0.80980703  0.39783998    -0.33500
N492        N  0.58285177  0.80382396  0.42295574    -0.27700
C493        C  0.57464344  0.77539161  0.43440184    -0.03800
C494        C  0.55091311  0.76276446  0.41543414     0.08400
C495        C  0.54553681  0.78551581  0.39268030     0.02200
H496        H  0.58666840  0.76387748  0.45368205     0.09800
H497        H  0.52940510  0.78408050  0.37287956     0.08900
N498        N  0.65985593  0.86082313  0.44173227    -0.34900
N499        N  0.66946849  0.88144525  0.42043689    -0.27100
C500        C  0.69742985  0.89351750  0.42965019    -0.02300
C501        C  0.70574776  0.87999569  0.45817211     0.06300
C502        C  0.68131108  0.85944639  0.46511361     0.04400
H503        H  0.71091573  0.91048854  0.41623000     0.09500
H504        H  0.67998046  0.84339164  0.48484473     0.08300
N505        N  0.50397172  0.92434435  0.00778202    -0.26100
N506        N  0.52366387  0.90741537  0.02484295    -0.34000
C507        C  0.52568487  0.87840142  0.01213980     0.02200
C508        C  0.50631199  0.87657812  0.98569468     0.08300
C509        C  0.49304118  0.90641306  0.98359927    -0.04800
H510        H  0.53975996  0.85983339  0.02221321     0.08900
H511        H  0.47541342  0.91408388  0.96686892     0.10100
Cu512      Cu  0.54416356  0.92214309  0.06711528     0.44200
Cu513      Cu  0.49027296  0.96959689  0.02088908     0.42000
Cu514      Cu  0.51693491  0.99518046  0.09945433     0.43900
N515        N  0.55680287  0.93820015  0.11189633    -0.33500
N516        N  0.54630787  0.96492513  0.12405741    -0.27700
C517        C  0.55574979  0.96721401  0.15438341    -0.03800
C518        C  0.57309289  0.94057736  0.16186425     0.08400
C519        C  0.57332166  0.92280485  0.13410152     0.02200
H520        H  0.54873642  0.98597357  0.17031768     0.09800
H521        H  0.58374401  0.89984742  0.13040868     0.08900
N522        N  0.48639313  0.02064584  0.07104239    -0.34900
N523        N  0.47723396  0.01184374  0.04234367    -0.27100
C524        C  0.45565851  0.03242536  0.03173966    -0.02300
C525        C  0.45079175  0.05504818  0.05497876     0.06300
C526        C  0.47065508  0.04680771  0.07952326     0.04400
H527        H  0.44263948  0.02966224  0.00983863     0.09500
H528        H  0.47227329  0.05799976  0.10256509     0.08300
N529        N  0.49596897  0.72618130  0.87466004    -0.26100
N530        N  0.48213190  0.71229495  0.89886885    -0.34000
C531        C  0.47450820  0.73433682  0.92044859     0.02200
C532        C  0.48448461  0.76358819  0.90978537     0.08300
C533        C  0.49762930  0.75750479  0.88040653    -0.04800
H534        H  0.46497389  0.72897860  0.94348713     0.08900
H535        H  0.51042912  0.77408656  0.86586187     0.10100
Cu536      Cu  0.48248436  0.66403580  0.90705535     0.44200
Cu537      Cu  0.51811685  0.70128189  0.83857307     0.42000
Cu538      Cu  0.53073345  0.61802864  0.85615898     0.43900
N539        N  0.49730684  0.61888281  0.91834234    -0.33500
N540        N  0.51556966  0.60203338  0.89957338    -0.27700
C541        C  0.52668511  0.57715868  0.91560807    -0.03800
C542        C  0.51507160  0.57846183  0.94618262     0.08400
C543        C  0.49628296  0.60514155  0.94688041     0.02200
H544        H  0.54401779  0.56092281  0.90640405     0.09800
H545        H  0.48567494  0.61578026  0.96757521     0.08900
N546        N  0.54865397  0.64072389  0.81698788    -0.34900
N547        N  0.54374226  0.67070028  0.81001493    -0.27100
C548        C  0.56013256  0.67790070  0.78380207    -0.02300
C549        C  0.57638549  0.65126839  0.77422987     0.06300
C550        C  0.56852352  0.62820727  0.79576390     0.04400
H551        H  0.56129573  0.70113415  0.77339441     0.09500
H552        H  0.57706552  0.60419827  0.79633743     0.08300
N553        N  0.60254658  0.52931622  0.10030144    -0.26100
N554        N  0.58463874  0.55296649  0.10982375    -0.34000
C555        C  0.56163151  0.55742218  0.08849371     0.02200
C556        C  0.56537184  0.53596651  0.06401553     0.08300
C557        C  0.59153982  0.51841315  0.07236744    -0.04800
H558        H  0.54597585  0.57749631  0.08866938     0.08900
H559        H  0.60341348  0.50104250  0.05787498     0.10100
Cu560      Cu  0.59759207  0.58520420  0.14456938     0.44200
Cu561      Cu  0.64461141  0.51728496  0.12229121     0.42000
Cu562      Cu  0.67353647  0.57585834  0.17892639     0.43900
N563        N  0.62161470  0.62171237  0.16698616    -0.33500
N564        N  0.64990630  0.61837223  0.17949128    -0.27700
C565        C  0.66244086  0.64709002  0.18523589    -0.03800
C566        C  0.64119180  0.66977859  0.17535399     0.08400
C567        C  0.61542146  0.65263876  0.16430051     0.02200
H568        H  0.68640385  0.65093533  0.19317009     0.09800
H569        H  0.59545912  0.66181905  0.15141531     0.08900
N570        N  0.69622936  0.53395876  0.16869227    -0.34900
N571        N  0.68627788  0.51276593  0.14776135    -0.27100
C572        C  0.70788521  0.48971792  0.14537994    -0.02300
C573        C  0.73254496  0.49676793  0.16590169     0.06300
C574        C  0.72424655  0.52499885  0.18019299     0.04400
H575        H  0.70590978  0.46959825  0.12956621     0.09500
H576        H  0.73821950  0.53889001  0.19667818     0.08300
C577        C  0.55921602  0.55432038  0.97720769     0.24800
C578        C  0.52695339  0.56143134  0.97425928    -0.23300
C579        C  0.50685038  0.55547970  0.99994489     0.19700
C580        C  0.51910930  0.54488258  0.02870975     0.24700
C581        C  0.55159518  0.53973380  0.03216939    -0.23300
C582        C  0.57136151  0.54340435  0.00584424     0.19600
F583        F  0.60296014  0.53938641  0.00859208    -0.13200
F584        F  0.57966519  0.56065704  0.95345580    -0.15600
F585        F  0.49943250  0.54078614  0.05361194    -0.15600
F586        F  0.47545482  0.56094170  0.99751693    -0.13200
C587        C  0.48487368  0.82287136  0.91578595     0.24800
C588        C  0.48844352  0.79275596  0.92911679    -0.23300
C589        C  0.49711465  0.79056289  0.96112885     0.19700
C590        C  0.50228202  0.81766326  0.97937278     0.24700
C591        C  0.49937566  0.84793891  0.96610852    -0.23300
C592        C  0.49005838  0.85022630  0.93414485     0.19600
F593        F  0.48657691  0.87882573  0.92035757    -0.13200
F594        F  0.47605744  0.82583368  0.88506737    -0.15600
F595        F  0.50950075  0.81389201  0.01037548    -0.15600
F596        F  0.50183640  0.76207249  0.97479467    -0.13200
C597        C  0.59227314  0.95420554  0.21681967     0.24800
C598        C  0.58405830  0.93113996  0.19390500    -0.23300
C599        C  0.58425882  0.89909254  0.20272776     0.19700
C600        C  0.59034395  0.89060063  0.23399673     0.24700
C601        C  0.59662321  0.91376932  0.25712281    -0.23300
C602        C  0.59855976  0.94555610  0.24814834     0.19600
F603        F  0.60489783  0.96838459  0.27002102    -0.13200
F604        F  0.59396960  0.98520501  0.20903683    -0.15600
F605        F  0.58972674  0.85955089  0.24180401    -0.15600
F606        F  0.57690653  0.87583504  0.18168902    -0.13200
C607        C  0.67777226  0.71355915  0.15851495     0.24800
C608        C  0.64762088  0.70349356  0.16832721    -0.23300
C609        C  0.62260763  0.72513902  0.16749607     0.19700
C610        C  0.62703858  0.75527342  0.15496550     0.24700
C611        C  0.65668087  0.76460525  0.14358417    -0.23300
C612        C  0.68223890  0.74389368  0.14637625     0.19600
F613        F  0.71102260  0.75199727  0.13499198    -0.13200
F614        F  0.70251940  0.69343693  0.15820447    -0.15600
F615        F  0.60215562  0.77521072  0.15342220    -0.15600
F616        F  0.59357933  0.71686568  0.17810867    -0.13200
C617        C  0.84955297  0.97173106  0.01558087     0.24800
C618        C  0.86888212  0.94521933  0.01087429    -0.23300
C619        C  0.85826507  0.91548708  0.02104679     0.19700
C620        C  0.82858250  0.91211724  0.03482964     0.24700
C621        C  0.80867143  0.93837145  0.03827324    -0.23300
C622        C  0.81954013  0.96824405  0.02883297     0.19600
F623        F  0.80094744  0.99402248  0.03217392    -0.13200
F624        F  0.85894949  0.00075460  0.00583892    -0.15600
F625        F  0.81871721  0.88279061  0.04317191    -0.15600
F626        F  0.87655156  0.88951894  0.01738824    -0.13200
C627        C  0.62823176  0.63359989  0.75324429     0.24800
C628        C  0.59910566  0.64829856  0.74810774    -0.23300
C629        C  0.59156293  0.65915102  0.71774683     0.19700
C630        C  0.61241716  0.65440168  0.69261305     0.24700
C631        C  0.64137138  0.63914190  0.69758742    -0.23300
C632        C  0.64924362  0.62918282  0.72828293     0.19600
F633        F  0.67682609  0.61419326  0.73405995    -0.13200
F634        F  0.63655393  0.62383892  0.78260578    -0.15600
F635        F  0.60446430  0.66517999  0.66353656    -0.15600
F636        F  0.56355512  0.67342620  0.71219906    -0.13200
C637        C  0.69644305  0.52018277  0.46879768     0.24800
C638        C  0.70276420  0.55122357  0.45902331    -0.23300
C639        C  0.71349877  0.55633602  0.42811143     0.19700
C640        C  0.72057031  0.53076055  0.40830839     0.24700
C641        C  0.71785605  0.49958620  0.41939649    -0.23300
C642        C  0.70399956  0.49455576  0.44923918     0.19600
F643        F  0.70067471  0.46506722  0.46111776    -0.13200
F644        F  0.68631046  0.51438176  0.49862060    -0.15600
F645        F  0.73190437  0.53654532  0.37891912    -0.15600
F646        F  0.71897393  0.58614730  0.41778490    -0.13200
C647        C  0.92521518  0.90001245  0.74497341     0.24800
C648        C  0.94784227  0.90290276  0.72106377    -0.23300
C649        C  0.97838697  0.91319165  0.72887344     0.19700
C650        C  0.98668414  0.91914370  0.76026265     0.24700
C651        C  0.96438276  0.91541496  0.78459379    -0.23300
C652        C  0.93331914  0.90636224  0.77645057     0.19600
F653        F  0.91053214  0.90386427  0.79871096    -0.13200
F654        F  0.89558816  0.88975065  0.73810438    -0.15600
F655        F  0.01696371  0.92747028  0.76667667    -0.15600
F656        F  0.00037232  0.91747741  0.70601680    -0.13200
C657        C  0.76485995  0.88330649  0.52542354     0.24800
C658        C  0.79363922  0.88397266  0.50893701    -0.23300
C659        C  0.79304621  0.88615363  0.47573453     0.19700
C660        C  0.76446349  0.88586532  0.45928438     0.24700
C661        C  0.73580158  0.88354156  0.47566852    -0.23300
C662        C  0.73624347  0.88294724  0.50890381     0.19600
F663        F  0.70891590  0.88181270  0.52546259    -0.13200
F664        F  0.76421978  0.88146563  0.55743351    -0.15600
F665        F  0.76503287  0.88617537  0.42720029    -0.15600
F666        F  0.82019143  0.88837749  0.45899758    -0.13200
C667        C  0.99750919  0.46864957  0.43242666     0.24800
C668        C  0.01026800  0.48718109  0.40811272    -0.23300
C669        C  0.99500325  0.48763438  0.37852299     0.19700
C670        C  0.96682850  0.47089831  0.37380439     0.24700
C671        C  0.95382284  0.45279055  0.39827816    -0.23300
C672        C  0.96964944  0.45144077  0.42748520     0.19600
F673        F  0.95727541  0.43478797  0.45180241    -0.13200
F674        F  0.01201659  0.46723086  0.46103983    -0.15600
F675        F  0.95211314  0.47255394  0.34531966    -0.15600
F676        F  0.00643164  0.50550146  0.35459444    -0.13200
C677        C  0.04428965  0.70557233  0.53246526     0.24800
C678        C  0.05305382  0.70515947  0.50045864    -0.23300
C679        C  0.04149504  0.72865902  0.48022002     0.19700
C680        C  0.02175911  0.75226962  0.49181459     0.24700
C681        C  0.01328520  0.75294858  0.52387823    -0.23300
C682        C  0.02463914  0.72932753  0.54412417     0.19600
F683        F  0.01602516  0.72866917  0.57500333    -0.13200
F684        F  0.05506047  0.68319188  0.55255120    -0.15600
F685        F  0.01145489  0.77484463  0.47171438    -0.15600
F686        F  0.04839395  0.72826678  0.44890510    -0.13200
C687        C  0.08951210  0.13647253  0.95410395     0.24800
C688        C  0.10221571  0.14666805  0.92529921    -0.23300
C689        C  0.10258281  0.12570174  0.89945640     0.19700
C690        C  0.08904909  0.09569535  0.90174770     0.24700
C691        C  0.07486282  0.08573214  0.93019500    -0.23300
C692        C  0.07619799  0.10626140  0.95662379     0.19600
F693        F  0.06453287  0.09732456  0.98502500    -0.13200
F694        F  0.08877600  0.15619419  0.97954799    -0.15600
F695        F  0.08886873  0.07725449  0.87540955    -0.15600
F696        F  0.11612370  0.13422897  0.87172959    -0.13200
C697        C  0.92477363  0.56614331  0.58363094     0.24800
C698        C  0.92730286  0.54369219  0.60774715    -0.23300
C699        C  0.90542766  0.54403325  0.63258808     0.19700
C700        C  0.87992972  0.56471583  0.63194062     0.24700
C701        C  0.87598018  0.58566920  0.60646653    -0.23300
C702        C  0.89951592  0.58709333  0.58311739     0.19600
F703        F  0.89782978  0.60836981  0.55933745    -0.13200
F704        F  0.94657514  0.56754750  0.56025133    -0.15600
F705        F  0.85809456  0.56232699  0.65514642    -0.15600
F706        F  0.90721636  0.52269221  0.65631145    -0.13200
C707        C  0.10146189  0.40048503  0.74777359     0.24800
C708        C  0.09556207  0.38191500  0.72056021    -0.23300
C709        C  0.10277621  0.34953241  0.72125390     0.19700
C710        C  0.11484656  0.33589745  0.74863988     0.24700
C711        C  0.12023528  0.35424962  0.77600426    -0.23300
C712        C  0.11392608  0.38680467  0.77518223     0.19600
F713        F  0.11855363  0.40514611  0.80127482    -0.13200
F714        F  0.09527488  0.43190524  0.74787742    -0.15600
F715        F  0.12133199  0.30453933  0.74828968    -0.15600
F716        F  0.09686111  0.33052742  0.69590516    -0.13200
C717        C  0.75401976  0.23232331  0.50090222     0.24800
C718        C  0.77600408  0.22637735  0.52505260    -0.23300
C719        C  0.80416980  0.24400519  0.52600677     0.19700
C720        C  0.81030241  0.26702219  0.50328749     0.24700
C721        C  0.78844793  0.27291845  0.47891378    -0.23300
C722        C  0.76011963  0.25538223  0.47811665     0.19600
F723        F  0.73835046  0.26023264  0.45510652    -0.13200
F724        F  0.72614345  0.21645083  0.49983867    -0.15600
F725        F  0.83726086  0.28422889  0.50598329    -0.15600
F726        F  0.82619558  0.23863255  0.54864749    -0.13200
C727        C  0.54868314  0.93255068  0.90532104     0.24800
C728        C  0.54582953  0.90628795  0.88502320    -0.23300
C729        C  0.55885589  0.87733664  0.89412848     0.19700
C730        C  0.57538148  0.87493627  0.92268788     0.22300
C731        C  0.57989800  0.90175734  0.94210127    -0.23300
C732        C  0.56586186  0.93040983  0.93348457     0.19600
F733        F  0.56908459  0.95644872  0.95217757    -0.13200
F734        F  0.53663164  0.96082405  0.89686192    -0.15600
F735        F  0.58848918  0.84685124  0.93039565    -0.15600
F736        F  0.55603130  0.85153382  0.87503563    -0.13200
C737        C  0.62835832  0.98361871  0.62993383     0.24800
C738        C  0.62825425  0.97674368  0.66241020    -0.23300
C739        C  0.65534371  0.98347560  0.68045729     0.19700
C740        C  0.68137485  0.99828655  0.66677548     0.24700
C741        C  0.68127941  0.00619694  0.63439028    -0.23300
C742        C  0.65470201  0.99793707  0.61599349     0.19600
F743        F  0.65403911  0.00399268  0.58452803    -0.13200
F744        F  0.60283055  0.97662636  0.61170155    -0.15600
F745        F  0.70558667  0.00681018  0.68609584    -0.15600
F746        F  0.65590788  0.97791197  0.71202651    -0.13200
C747        C  0.74272393  0.13781757  0.78097885     0.24800
C748        C  0.74745594  0.11294722  0.75927330    -0.23300
C749        C  0.73197318  0.08385595  0.76447865     0.19700
C750        C  0.71181038  0.08007475  0.79017415     0.24700
C751        C  0.70595139  0.10536526  0.81098445    -0.23300
C752        C  0.72210918  0.13413096  0.80649223     0.19600
F753        F  0.71695151  0.15926462  0.82585740    -0.13200
F754        F  0.75775932  0.16593509  0.77732976    -0.15600
F755        F  0.69791893  0.05147333  0.79452339    -0.15600
F756        F  0.73474124  0.05930205  0.74391163    -0.13200
C757        C  0.26933555  0.32743305  0.02518688     0.24800
C758        C  0.27050986  0.32826979  0.99193919    -0.23300
C759        C  0.29950266  0.33412147  0.97711098     0.19700
C760        C  0.32691511  0.33822746  0.99507589     0.24700
C761        C  0.32597577  0.33668164  0.02829519    -0.23300
C762        C  0.29679204  0.33179559  0.04323715     0.19600
F763        F  0.29496757  0.32983166  0.07520316    -0.13200
F764        F  0.24157371  0.32235016  0.04023203    -0.15600
F765        F  0.35446857  0.34376739  0.97983092    -0.15600
F766        F  0.30169333  0.33435403  0.94510102    -0.13200
C767        C  0.56119638  0.21459895  0.06947668     0.24800
C768        C  0.55943222  0.24412988  0.05475473    -0.23300
C769        C  0.57539623  0.24899560  0.02617470     0.19700
C770        C  0.59117215  0.22406903  0.01137291     0.24700
C771        C  0.59069315  0.19372146  0.02478124    -0.23300
C772        C  0.57665535  0.18955471  0.05455784     0.19600
F773        F  0.57667650  0.16079844  0.06854578    -0.13200
F774        F  0.54573418  0.20925537  0.09698735    -0.15600
F775        F  0.60455861  0.22914454  0.98274451    -0.15600
F776        F  0.57458771  0.27762272  0.01195062    -0.13200
C777        C  0.39333851  0.11918544  0.03199901     0.24800
C778        C  0.37177006  0.11813458  0.05726274    -0.23300
C779        C  0.37752764  0.09717483  0.08234340     0.19700
C780        C  0.40387412  0.07759157  0.08197325     0.24700
C781        C  0.42472931  0.07794816  0.05629925    -0.23300
C782        C  0.41939279  0.09898368  0.03136828     0.19600
F783        F  0.43951392  0.10006662  0.00650262    -0.13200
F784        F  0.38924173  0.13976622  0.00789917    -0.15600
F785        F  0.40790625  0.05680687  0.10591879    -0.15600
F786        F  0.35671865  0.09397523  0.10639972    -0.13200
C787        C  0.43843199  0.97438753  0.91733734     0.24800
C788        C  0.42088626  0.97761021  0.88928603    -0.23300
C789        C  0.43337763  0.99570284  0.86450687     0.19700
C790        C  0.46244681  0.01107604  0.86804965     0.24700
C791        C  0.47939413  0.00883132  0.89657873    -0.23300
C792        C  0.46734318  0.98992679  0.92096960     0.19600
F793        F  0.48355662  0.98643611  0.94843881    -0.13200
F794        F  0.42694508  0.95753408  0.94196299    -0.15600
F795        F  0.47321602  0.02933746  0.84411113    -0.15600
F796        F  0.41734136  0.99865600  0.83686891    -0.13200
C797        C  0.18175706  0.09581858  0.90611312     0.24800
C798        C  0.17235421  0.09382984  0.93783992    -0.23300
C799        C  0.16376900  0.06420093  0.95004448     0.19700
C800        C  0.16943767  0.03669090  0.93254074     0.24700
C801        C  0.18320216  0.03850638  0.90229890    -0.23300
C802        C  0.18678376  0.06835892  0.88833312     0.19600
F803        F  0.19794044  0.07094924  0.85840805    -0.13200
F804        F  0.18894849  0.12427128  0.89332717    -0.15600
F805        F  0.16520291  0.00852354  0.94703793    -0.15600
F806        F  0.15402037  0.06131907  0.98042392    -0.13200
C807        C  0.99506790  0.33643180  0.46221025     0.24800
C808        C  0.02359614  0.34095460  0.47892883    -0.23300
C809        C  0.04915656  0.32090332  0.47233303     0.19700
C810        C  0.04610274  0.29661967  0.45013972     0.24700
C811        C  0.01754340  0.29180572  0.43408883    -0.23300
C812        C  0.99206865  0.31182897  0.44005562     0.19600
F813        F  0.96414013  0.30708264  0.42496579    -0.13200
F814        F  0.96963248  0.35475163  0.46821608    -0.15600
F815        F  0.07084195  0.27707305  0.44495859    -0.15600
F816        F  0.07743477  0.32505345  0.48689377    -0.13200
C817        C  0.12758724  0.17186982  0.18807869     0.24800
C818        C  0.15641029  0.15616092  0.18434241    -0.23300
C819        C  0.16900447  0.13934769  0.20993964     0.19700
C820        C  0.15353764  0.13907291  0.23907646     0.24700
C821        C  0.12535935  0.15590676  0.24319735    -0.23300
C822        C  0.11227004  0.17185361  0.21726022     0.19600
F823        F  0.08446200  0.18728680  0.22002896    -0.13200
F824        F  0.11477863  0.18829011  0.16382604    -0.15600
F825        F  0.16683623  0.12334370  0.26352405    -0.15600
F826        F  0.19616611  0.12288936  0.20668816    -0.13200
C827        C  0.32398019  0.01584591  0.70966258     0.24800
C828        C  0.32316068  0.04691105  0.69802148    -0.23300
C829        C  0.35125120  0.06471352  0.69733094     0.19700
C830        C  0.37969111  0.05140574  0.70716199     0.24700
C831        C  0.38052496  0.02028192  0.71839351    -0.23300
C832        C  0.35238114  0.00275786  0.72001578     0.19600
F833        F  0.35256439  0.97252090  0.73046467    -0.13200
F834        F  0.29723738  0.99820040  0.71135715    -0.15600
F835        F  0.40646467  0.06905868  0.70591859    -0.15600
F836        F  0.35148546  0.09462170  0.68600620    -0.13200
C837        C  0.11914286  0.07028240  0.49112046     0.24800
C838        C  0.08675069  0.07649827  0.48767663    -0.23300
C839        C  0.06658456  0.07077938  0.51336667     0.19700
C840        C  0.07877140  0.06107783  0.54241718     0.24700
C841        C  0.11137545  0.05696250  0.54647247    -0.23300
C842        C  0.13130423  0.06044732  0.52016741     0.19600
F843        F  0.16296435  0.05719669  0.52306117    -0.13200
F844        F  0.13964033  0.07631688  0.46733444    -0.15600
F845        F  0.05877202  0.05697975  0.56706461    -0.15600
F846        F  0.03507530  0.07543434  0.51069382    -0.13200
C847        C  0.51690483  0.68369835  0.38912261     0.24800
C848        C  0.51324334  0.66796703  0.41803202    -0.23300
C849        C  0.52180003  0.68370129  0.44622237     0.19700
C850        C  0.53393068  0.71453420  0.44545106     0.24700
C851        C  0.53755635  0.73030296  0.41647301    -0.23300
C852        C  0.52893426  0.71443056  0.38831909     0.19600
F853        F  0.53297432  0.72812846  0.35970723    -0.13200
F854        F  0.50821531  0.66961522  0.36146879    -0.15600
F855        F  0.54166267  0.72906877  0.47315073    -0.15600
F856        F  0.51920347  0.66898047  0.47450443    -0.13200
C857        C  0.46790899  0.45584649  0.26634229     0.24800
C858        C  0.47592663  0.44127764  0.29500299    -0.23300
C859        C  0.48156081  0.40858637  0.29522416     0.19700
C860        C  0.47861935  0.39066087  0.26735940     0.24700
C861        C  0.46921190  0.40505079  0.23901739    -0.23300
C862        C  0.46425077  0.43784141  0.23870139     0.19600
F863        F  0.45600522  0.45254638  0.21151595    -0.13200
F864        F  0.46214250  0.48732193  0.26532016    -0.15600
F865        F  0.48366783  0.35905365  0.26838906    -0.15600
F866        F  0.48990601  0.39402317  0.32246226    -0.13200
C867        C  0.14019321  0.26631099  0.58649435     0.24800
C868        C  0.14945779  0.29566267  0.59959301    -0.23300
C869        C  0.16336960  0.29621256  0.62997941     0.19700
C870        C  0.16878182  0.26808776  0.64626707     0.24700
C871        C  0.15949335  0.23903190  0.63303702    -0.23300
C872        C  0.14493661  0.23840258  0.60315636     0.19600
F873        F  0.13662260  0.21052514  0.58929031    -0.13200
F874        F  0.12780248  0.26414523  0.55694295    -0.15600
F875        F  0.18263754  0.26926534  0.67523631    -0.15600
F876        F  0.17130515  0.32392869  0.64431785    -0.13200
C877        C  0.27176681  0.49551591  0.47031839     0.24800
C878        C  0.26379854  0.49693952  0.50258506    -0.23300
C879        C  0.28749348  0.50363024  0.52503585     0.19700
C880        C  0.31872798  0.50804623  0.51546473     0.24700
C881        C  0.32677323  0.50512401  0.48342930    -0.23300
C882        C  0.30304442  0.49930503  0.46089270     0.19600
F883        F  0.31017913  0.49723511  0.42967050    -0.13200
F884        F  0.24969031  0.48866871  0.44796218    -0.15600
F885        F  0.34134102  0.51377438  0.53758698    -0.15600
F886        F  0.28043323  0.50543219  0.55628468    -0.13200
C887        C  0.07132286  0.43659479  0.36500296     0.24800
C888        C  0.05787584  0.42128123  0.39112144    -0.23300
C889        C  0.02956931  0.40424120  0.38681948     0.19700
C890        C  0.01508696  0.40253935  0.35702504     0.24700
C891        C  0.02860050  0.41785447  0.33091289    -0.23300
C892        C  0.05671334  0.43519371  0.33537687     0.19600
F893        F  0.07000307  0.45133519  0.31118329    -0.13200
F894        F  0.09927480  0.45213852  0.36773085    -0.15600
F895        F  0.98830356  0.38515788  0.35360312    -0.15600
F896        F  0.01561025  0.38953528  0.41154048    -0.13200
C897        C  0.80836663  0.45364333  0.14715961     0.24800
C898        C  0.82402772  0.45490476  0.17656521    -0.23300
C899        C  0.80823654  0.46781977  0.20281489     0.19700
C900        C  0.77797881  0.48014788  0.19950106     0.24700
C901        C  0.76284103  0.48007300  0.16987083    -0.23300
C902        C  0.77802751  0.46601003  0.14386161     0.19600
F903        F  0.76428804  0.46563975  0.11483249    -0.13200
F904        F  0.82250744  0.44071429  0.12143049    -0.15600
F905        F  0.76359373  0.49247136  0.22538951    -0.15600
F906        F  0.82261506  0.47023104  0.23144481    -0.13200
C907        C  0.20722911  0.76274152  0.98207095     0.24800
C908        C  0.22599917  0.75370344  0.00785267    -0.23300
C909        C  0.25401154  0.77052206  0.01431257     0.19700
C910        C  0.26285219  0.79614413  0.99568120     0.24700
C911        C  0.24387591  0.80551952  0.97012592    -0.23300
C912        C  0.21607188  0.78839988  0.96339070     0.19600
F913        F  0.19759459  0.79614272  0.93840327    -0.13200
F914        F  0.17982311  0.74734174  0.97543204    -0.15600
F915        F  0.28954202  0.81229476  0.00339753    -0.15600
F916        F  0.27328639  0.76187264  0.03837552    -0.13200
C917        C  0.18643143  0.64977291  0.24862575     0.24800
C918        C  0.21356239  0.63403790  0.23799934    -0.23300
C919        C  0.23006266  0.61446408  0.25893058     0.19700
C920        C  0.21912656  0.61002328  0.28976238     0.24700
C921        C  0.19165511  0.62518487  0.30003686    -0.23300
C922        C  0.17561696  0.64540240  0.27945275     0.19600
F923        F  0.14830900  0.65927219  0.28854489    -0.13200
F924        F  0.16911040  0.66761581  0.22856982    -0.15600
F925        F  0.23513199  0.59070276  0.30952672    -0.15600
F926        F  0.25658043  0.59942995  0.24937153    -0.13200
C927        C  0.08598272  0.53536010  0.07730844     0.24800
C928        C  0.11703747  0.52391295  0.07617133    -0.23300
C929        C  0.12273845  0.49228342  0.08398027     0.19700
C930        C  0.09830318  0.47293366  0.09448858     0.24700
C931        C  0.06767749  0.48490182  0.09783641    -0.23300
C932        C  0.06144888  0.51597406  0.08806915     0.19600
F933        F  0.03229113  0.52853113  0.09142210    -0.13200
F934        F  0.07974896  0.56603304  0.07075388    -0.15600
F935        F  0.10485162  0.44266042  0.10243055    -0.15600
F936        F  0.15233388  0.48037715  0.08254731    -0.13200
loop_ 
_geom_bond_atom_site_label_1 
_geom_bond_atom_site_label_2 
_geom_bond_distance 
_geom_bond_site_symmetry_2 
_ccdc_geom_bond_type 
N1            N2   1.322       .  A
N1            C5   1.347       .  A
N1           Cu9   2.074       .  S
N2            C3   1.340       .  A
N2           Cu8   2.062       .  S
C3            C4   1.381       .  A
C3            H6   1.082       .  S
C4            C5   1.386       .  A
C4          C928   1.477       .  S
C5            H7   1.082       .  S
Cu8          N11   2.063       .  S
Cu9          N19   2.074       .  S
Cu10         N12   2.063       .  S
Cu10         N18   2.064       .  S
N11          N12   1.320       .  A
N11          C15   1.344       .  A
N12          C13   1.344       .  A
C13          C14   1.384       .  A
C13          H16   1.082       .  S
C14          C15   1.383       .  A
C14         C918   1.475       .  S
C15          H17   1.082       .  S
N18          N19   1.322       .  A
N18          C22   1.341       .  A
N19          C20   1.346       .  A
C20          C21   1.386       .  A
C20          H23   1.082   1_554  S
C21          C22   1.382       .  A
C21         C908   1.478       .  S
C22          H24   1.082       .  S
N25          N26   1.320   1_655  A
N25          C29   1.348       .  A
N25         Cu33   2.082       .  S
N26          C27   1.342       .  A
N26         Cu32   2.063       .  S
C27          C28   1.385       .  A
C27          H30   1.081       .  S
C28          C29   1.389   1_455  A
C28         C891   1.485       .  S
C29          H31   1.082       .  S
Cu32         N35   2.062       .  S
Cu33         N43   2.083       .  S
Cu34         N36   2.068       .  S
Cu34         N42   2.070       .  S
N35          N36   1.320   1_455  A
N35          C39   1.340       .  A
N36          C37   1.347   1_655  A
C37          C38   1.387       .  A
C37          H40   1.082   1_455  S
C38          C39   1.383       .  A
C38         C931   1.479       .  S
C39          H41   1.082       .  S
N42          N43   1.323       .  A
N42          C46   1.344       .  A
N43          C44   1.345       .  A
C44          C45   1.387       .  A
C44          H47   1.081       .  S
C45          C46   1.384       .  A
C45         C898   1.483       .  S
C46          H48   1.082       .  S
N49          N50   1.321       .  A
N49          C53   1.342       .  A
N49         Cu57   2.062       .  S
N50          C51   1.344       .  A
N50         Cu56   2.070       .  S
C51          C52   1.386       .  A
C51          H54   1.082       .  S
C52          C53   1.383       .  A
C52         C878   1.477       .  S
C53          H55   1.082       .  S
Cu56         N59   2.070       .  S
Cu57         N67   2.062       .  S
Cu58         N60   2.078       .  S
Cu58         N66   2.078       .  S
N59          N60   1.321       .  A
N59          C63   1.343       .  A
N60          C61   1.346       .  A
C61          C62   1.384       .  A
C61          H64   1.078       .  S
C62          C63   1.386       .  A
C62         C888   1.484       .  S
C63          H65   1.080       .  S
N66          N67   1.320       .  A
N66          C70   1.344       .  A
N67          C68   1.343       .  A
C68          C69   1.386       .  A
C68          H71   1.081       .  S
C69          C70   1.389       .  A
C69         C868   1.488       .  S
C70          H72   1.080       .  S
N73          N74   1.323       .  A
N73          C77   1.345       .  A
N73         Cu81   2.070       .  S
N74          C75   1.344       .  A
N74         Cu80   2.073       .  S
C75          C76   1.382       .  A
C75          H78   1.082       .  S
C76          C77   1.381       .  A
C76         C881   1.471       .  S
C77          H79   1.082       .  S
Cu80         N83   2.072       .  S
Cu81         N91   2.071       .  S
Cu82         N84   2.075       .  S
Cu82         N90   2.075       .  S
N83          N84   1.321       .  A
N83          C87   1.345       .  A
N84          C85   1.345       .  A
C85          C86   1.386       .  A
C85          H88   1.082       .  S
C86          C87   1.384       .  A
C86         C858   1.479       .  S
C87          H89   1.082       .  S
N90          N91   1.322       .  A
N90          C94   1.343       .  A
N91          C92   1.346       .  A
C92          C93   1.385       .  A
C92          H95   1.082       .  S
C93          C94   1.385       .  A
C93         C848   1.481       .  S
C94          H96   1.082       .  S
N97          N98   1.320       .  A
N97         C101   1.346       .  A
N97        Cu105   2.074       .  S
N98          C99   1.340       .  A
N98        Cu104   2.056       .  S
C99         C100   1.383       .  A
C99         H102   1.082       .  S
C100        C101   1.390       .  A
C100        C841   1.481       .  S
C101        H103   1.081       .  S
Cu104       N107   2.058       .  S
Cu105       N115   2.076       .  S
Cu106       N108   2.079       .  S
Cu106       N114   2.080       .  S
N107        N108   1.321       .  A
N107        C111   1.341       .  A
N108        C109   1.347       .  A
C109        C110   1.386       .  A
C109        H112   1.082       .  S
C110        C111   1.381       .  A
C110        C871   1.475       .  S
C111        H113   1.082       .  S
N114        N115   1.323       .  A
N114        C118   1.345       .  A
N115        C116   1.344       .  A
C116        C117   1.385       .  A
C116        H119   1.082       .  S
C117        C118   1.386       .  A
C117        C828   1.482       .  S
C118        H120   1.082       .  S
N121        N122   1.320       .  A
N121        C125   1.344       .  A
N121       Cu129   2.067       .  S
N122        C123   1.342       .  A
N122       Cu128   2.063       .  S
C123        C124   1.381       .  A
C123        H126   1.082   1_455  S
C124        C125   1.384       .  A
C124        C811   1.465       .  S
C125        H127   1.082       .  S
Cu128       N131   2.066       .  S
Cu129       N139   2.068       .  S
Cu130       N132   2.069       .  S
Cu130       N138   2.069       .  S
N131        N132   1.321       .  A
N131        C135   1.342       .  A
N132        C133   1.344       .  A
C133        C134   1.387       .  A
C133        H136   1.081       .  S
C134        C135   1.386       .  A
C134        C838   1.483       .  S
C135        H137   1.082       .  S
N138        N139   1.322       .  A
N138        C142   1.345       .  A
N139        C140   1.342       .  A
C140        C141   1.384       .  A
C140        H143   1.082       .  S
C141        C142   1.385       .  A
C141        C821   1.478       .  S
C142        H144   1.082       .  S
N145        N146   1.322       .  A
N145        C149   1.344       .  A
N145       Cu153   2.070       .  S
N146        C147   1.344       .  A
N146       Cu152   2.072       .  S
C147        C148   1.384       .  A
C147        H150   1.082   1_565  S
C148        C149   1.385       .  A
C148        C788   1.478       .  S
C149        H151   1.082       .  S
Cu152       N155   2.072       .  S
Cu153       N163   2.070       .  S
Cu154       N156   2.067       .  S
Cu154       N162   2.068       .  S
N155        N156   1.320       .  A
N155        C159   1.342   1_565  A
N156        C157   1.345       .  A
C157        C158   1.388   1_565  A
C157        H160   1.081       .  S
C158        C159   1.388       .  A
C158        C801   1.485       .  S
C159        H161   1.082       .  S
N162        N163   1.321       .  A
N162        C166   1.343       .  A
N163        C164   1.344       .  A
C164        C165   1.386       .  A
C164        H167   1.081       .  S
C165        C166   1.384       .  A
C165        C911   1.481       .  S
C166        H168   1.082       .  S
N169        N170   1.321   1_554  A
N169        C173   1.346   1_554  A
N169       Cu177   2.069       .  S
N170        C171   1.341       .  A
N170       Cu176   2.072   1_556  S
C171        C172   1.385       .  A
C171        H174   1.082       .  S
C172        C173   1.387       .  A
C172        C798   1.478       .  S
C173        H175   1.081       .  S
Cu176       N179   2.073       .  S
Cu177       N187   2.070       .  S
Cu178       N180   2.073       .  S
Cu178       N186   2.074       .  S
N179        N180   1.320       .  A
N179        C183   1.345       .  A
N180        C181   1.344       .  A
C181        C182   1.388       .  A
C181        H184   1.081       .  S
C182        C183   1.387       .  A
C182        C778   1.487       .  S
C183        H185   1.082       .  S
N186        N187   1.323       .  A
N186        C190   1.344       .  A
N187        C188   1.344       .  A
C188        C189   1.383       .  A
C188        H191   1.082       .  S
C189        C190   1.384       .  A
C189        C818   1.476       .  S
C190        H192   1.082       .  S
N193        N194   1.321       .  A
N193        C197   1.346       .  A
N193       Cu201   2.076       .  S
N194        C195   1.343       .  A
N194       Cu200   2.064       .  S
C195        C196   1.381       .  A
C195        H198   1.082       .  S
C196        C197   1.384       .  A
C196        C768   1.472       .  S
C197        H199   1.082       .  S
Cu200       N203   2.064       .  S
Cu201       N211   2.078       .  S
Cu202       N204   2.080       .  S
Cu202       N210   2.081       .  S
N203        N204   1.321       .  A
N203        C207   1.341       .  A
N204        C205   1.348       .  A
C205        C206   1.388       .  A
C205        H208   1.082       .  S
C206        C207   1.383       .  A
C206        C761   1.482       .  S
C207        H209   1.082       .  S
N210        N211   1.324       .  A
N210        C214   1.345       .  A
N211        C212   1.346       .  A
C212        C213   1.384       .  A
C212        H215   1.082       .  S
C213        C214   1.385       .  A
C213        C861   1.479       .  S
C214        H216   1.082       .  S
N217        N218   1.321       .  A
N217        C221   1.345       .  A
N217       Cu225   2.071       .  S
N218        C219   1.343       .  A
N218       Cu224   2.067       .  S
C219        C220   1.384       .  A
C219        H222   1.080       .  S
C220        C221   1.385       .  A
C220        C791   1.478       .  S
C221        H223   1.081       .  S
Cu224       N227   2.066       .  S
Cu225       N235   2.072       .  S
Cu226       N228   2.067       .  S
Cu226       N234   2.067       .  S
N227        N228   1.320       .  A
N227        C231   1.342   1_556  A
N228        C229   1.345       .  A
C229        C230   1.386   1_556  A
C229        H232   1.082       .  S
C230        C231   1.384       .  A
C230        C771   1.479       .  S
C231        H233   1.082       .  S
N234        N235   1.322       .  A
N234        C238   1.344       .  A
N235        C236   1.343       .  A
C236        C237   1.387       .  A
C236        H239   1.082       .  S
C237        C238   1.385       .  A
C237        C751   1.482       .  S
C238        H240   1.081       .  S
N241        N242   1.323       .  A
N241        C245   1.348       .  A
N241       Cu249   2.080       .  S
N242        C243   1.343       .  A
N242       Cu248   2.074       .  S
C243        C244   1.381       .  A
C243        H246   1.082       .  S
C244        C245   1.386       .  A
C244        C728   1.474       .  S
C245        H247   1.082       .  S
Cu248       N251   2.075       .  S
Cu249       N259   2.080       .  S
Cu250       N252   2.073       .  S
Cu250       N258   2.073       .  S
N251        N252   1.321       .  A
N251        C255   1.345       .  A
N252        C253   1.345       .  A
C253        C254   1.385       .  A
C253        H256   1.082       .  S
C254        C255   1.387       .  A
C254        C738   1.482       .  S
C255        H257   1.082       .  S
N258        N259   1.323       .  A
N258        C262   1.344   1_565  A
N259        C260   1.347       .  A
C260        C261   1.385   1_565  A
C260        H263   1.082       .  S
C261        C262   1.382       .  A
C261        C831   1.477       .  S
C262        H264   1.082       .  S
N265        N266   1.320       .  A
N265        C269   1.347       .  A
N265       Cu273   2.080       .  S
N266        C267   1.342       .  A
N266       Cu272   2.064       .  S
C267        C268   1.387       .  A
C267        H270   1.080       .  S
C268        C269   1.391       .  A
C268        C741   1.491       .  S
C269        H271   1.082       .  S
Cu272       N275   2.063       .  S
Cu273       N283   2.080       .  S
Cu274       N276   2.073       .  S
Cu274       N282   2.074       .  S
N275        N276   1.320       .  A
N275        C279   1.341       .  A
N276        C277   1.346       .  A
C277        C278   1.390       .  A
C277        H280   1.082       .  S
C278        C279   1.386       .  A
C278        C748   1.487       .  S
C279        H281   1.080       .  S
N282        N283   1.322       .  A
N282        C286   1.344       .  A
N283        C284   1.346       .  A
C284        C285   1.386       .  A
C284        H287   1.082       .  S
C285        C286   1.385       .  A
C285        C718   1.482       .  S
C286        H288   1.082       .  S
N289        N290   1.319       .  A
N289        C293   1.345       .  A
N289       Cu297   2.069       .  S
N290        C291   1.343       .  A
N290       Cu296   2.066       .  S
C291        C292   1.387       .  A
C291        H294   1.082       .  S
C292        C293   1.387       .  A
C292        C708   1.484       .  S
C293        H295   1.082       .  S
Cu296       N299   2.066       .  S
Cu297       N307   2.069   1_455  S
Cu298       N300   2.064   1_655  S
Cu298       N306   2.065       .  S
N299        N300   1.320       .  A
N299        C303   1.339       .  A
N300        C301   1.345       .  A
C301        C302   1.387       .  A
C301        H304   1.080   1_455  S
C302        C303   1.384       .  A
C302        C808   1.481       .  S
C303        H305   1.079       .  S
N306        N307   1.323       .  A
N306        C310   1.342       .  A
N307        C308   1.343       .  A
C308        C309   1.383       .  A
C308        H311   1.082       .  S
C309        C310   1.383       .  A
C309        C698   1.474       .  S
C310        H312   1.082       .  S
N313        N314   1.322       .  A
N313        C317   1.350       .  A
N313       Cu321   2.089       .  S
N314        C315   1.341       .  A
N314       Cu320   2.064       .  S
C315        C316   1.382       .  A
C315        H318   1.082       .  S
C316        C317   1.389       .  A
C316        C711   1.482       .  S
C317        H319   1.082       .  S
Cu320       N323   2.064       .  S
Cu321       N331   2.091       .  S
Cu322       N324   2.067       .  S
Cu322       N330   2.068       .  S
N323        N324   1.320       .  A
N323        C327   1.342       .  A
N324        C325   1.346       .  A
C325        C326   1.385       .  A
C325        H328   1.082       .  S
C326        C327   1.384       .  A
C326        C688   1.478       .  S
C327        H329   1.082       .  S
N330        N331   1.324       .  A
N330        C334   1.343       .  A
N331        C332   1.347       .  A
C332        C333   1.387       .  A
C332        H335   1.082       .  S
C333        C334   1.381       .  A
C333        C758   1.480       .  S
C334        H336   1.082       .  S
N337        N338   1.322       .  A
N337        C341   1.343       .  A
N337       Cu345   2.070       .  S
N338        C339   1.344       .  A
N338       Cu344   2.070       .  S
C339        C340   1.383       .  A
C339        H342   1.082       .  S
C340        C341   1.383       .  A
C340        C678   1.476       .  S
C341        H343   1.082       .  S
Cu344       N347   2.070       .  S
Cu345       N355   2.069       .  S
Cu346       N348   2.070       .  S
Cu346       N354   2.068       .  S
N347        N348   1.321       .  A
N347        C351   1.344       .  A
N348        C349   1.344       .  A
C349        C350   1.385       .  A
C349        H352   1.081       .  S
C350        C351   1.385       .  A
C350        C668   1.480       .  S
C351        H353   1.082       .  S
N354        N355   1.321       .  A
N354        C358   1.343       .  A
N355        C356   1.345       .  A
C356        C357   1.383       .  A
C356        H359   1.082       .  S
C357        C358   1.381       .  A
C357        C921   1.470       .  S
C358        H360   1.082       .  S
N361        N362   1.319       .  A
N361        C365   1.342       .  A
N361       Cu369   2.049       .  S
N362        C363   1.344       .  A
N362       Cu368   2.069       .  S
C363        C364   1.386       .  A
C363        H366   1.082       .  S
C364        C365   1.382       .  A
C364        C681   1.476   1_655  S
C365        H367   1.082   1_655  S
Cu368       N371   2.070       .  S
Cu369       N379   2.050       .  S
Cu370       N372   2.071       .  S
Cu370       N378   2.070       .  S
N371        N372   1.322       .  A
N371        C375   1.341       .  A
N372        C373   1.345       .  A
C373        C374   1.387       .  A
C373        H376   1.081       .  S
C374        C375   1.385       .  A
C374        C658   1.483       .  S
C375        H377   1.081       .  S
N378        N379   1.321       .  A
N378        C382   1.346       .  A
N379        C380   1.338       .  A
C380        C381   1.379       .  A
C380        H383   1.082       .  S
C381        C382   1.385       .  A
C381        C648   1.470       .  S
C382        H384   1.082       .  S
N385        N386   1.321       .  A
N385        C389   1.347       .  A
N385       Cu393   2.080       .  S
N386        C387   1.342       .  A
N386       Cu392   2.065       .  S
C387        C388   1.382       .  A
C387        H390   1.082       .  S
C388        C389   1.388       .  A
C388        C638   1.477       .  S
C389        H391   1.082       .  S
Cu392       N395   2.066       .  S
Cu393       N403   2.081       .  S
Cu394       N396   2.061       .  S
Cu394       N402   2.062       .  S
N395        N396   1.319       .  A
N395        C399   1.342       .  A
N396        C397   1.343       .  A
C397        C398   1.388       .  A
C397        H400   1.081       .  S
C398        C399   1.387       .  A
C398        C701   1.484       .  S
C399        H401   1.082       .  S
N402        N403   1.322       .  A
N402        C406   1.342       .  A
N403        C404   1.345       .  A
C404        C405   1.387       .  A
C404        H407   1.082       .  S
C405        C406   1.383       .  A
C405        C631   1.480       .  S
C406        H408   1.082       .  S
N409        N410   1.322       .  A
N409        C413   1.347       .  A
N409       Cu417   2.081       .  S
N410        C411   1.345       .  A
N410       Cu416   2.072       .  S
C411        C412   1.383       .  A
C411        H414   1.082       .  S
C412        C413   1.386       .  A
C412        C671   1.479       .  S
C413        H415   1.082       .  S
Cu416       N419   2.072       .  S
Cu417       N427   2.081       .  S
Cu418       N420   2.070       .  S
Cu418       N426   2.071       .  S
N419        N420   1.320       .  A
N419        C423   1.342       .  A
N420        C421   1.345       .  A
C421        C422   1.389       .  A
C421        H424   1.081       .  S
C422        C423   1.387       .  A
C422        C641   1.487       .  S
C423        H425   1.082       .  S
N426        N427   1.322       .  A
N426        C430   1.345       .  A
N427        C428   1.344       .  A
C428        C429   1.389       .  A
C428        H431   1.081       .  S
C429        C430   1.386       .  A
C429        C721   1.487       .  S
C430        H432   1.081       .  S
N433        N434   1.323       .  A
N433        C437   1.347       .  A
N433       Cu441   2.086       .  S
N434        C435   1.343       .  A
N434       Cu440   2.067       .  S
C435        C436   1.383       .  A
C435        H438   1.082       .  S
C436        C437   1.386       .  A
C436        C618   1.480   1_556  S
C437        H439   1.082   1_556  S
Cu440       N443   2.064       .  S
Cu441       N451   2.085   1_665  S
Cu442       N444   2.054   1_455  S
Cu442       N450   2.053   1_565  S
N443        N444   1.319       .  A
N443        C447   1.343       .  A
N444        C445   1.340       .  A
C445        C446   1.385       .  A
C445        H448   1.081   1_655  S
C446        C447   1.389       .  A
C446        C651   1.484       .  S
C447        H449   1.080       .  S
N450        N451   1.319       .  A
N450        C454   1.341       .  A
N451        C452   1.346       .  A
C452        C453   1.394       .  A
C452        H455   1.081       .  S
C453        C454   1.388       .  A
C453        C691   1.493       .  S
C454        H456   1.079       .  S
N457        N458   1.324       .  A
N457        C461   1.343       .  A
N457       Cu465   2.070       .  S
N458        C459   1.347       .  A
N458       Cu464   2.085       .  S
C459        C460   1.386       .  A
C459        H462   1.082       .  S
C460        C461   1.382       .  A
C460        C621   1.479       .  S
C461        H463   1.082       .  S
Cu464       N467   2.084       .  S
Cu465       N475   2.070       .  S
Cu466       N468   2.061       .  S
Cu466       N474   2.061       .  S
N467        N468   1.321       .  A
N467        C471   1.347   1_554  A
N468        C469   1.342   1_554  A
C469        C470   1.380       .  A
C469        H472   1.081       .  S
C470        C471   1.387       .  A
C470        C731   1.478       .  S
C471        H473   1.082       .  S
N474        N475   1.320       .  A
N474        C478   1.342       .  A
N475        C476   1.346       .  A
C476        C477   1.386       .  A
C476        H479   1.082       .  S
C477        C478   1.382       .  A
C477        C611   1.476       .  S
C478        H480   1.082       .  S
N481        N482   1.322       .  A
N481        C485   1.349       .  A
N481       Cu489   2.078       .  S
N482        C483   1.341       .  A
N482       Cu488   2.067       .  S
C483        C484   1.382       .  A
C483        H486   1.082       .  S
C484        C485   1.386       .  A
C484        C601   1.477       .  S
C485        H487   1.082       .  S
Cu488       N491   2.066       .  S
Cu489       N499   2.079       .  S
Cu490       N492   2.071       .  S
Cu490       N498   2.071       .  S
N491        N492   1.320       .  A
N491        C495   1.342       .  A
N492        C493   1.345       .  A
C493        C494   1.388       .  A
C493        H496   1.081       .  S
C494        C495   1.386       .  A
C494        C851   1.485       .  S
C495        H497   1.081       .  S
N498        N499   1.323       .  A
N498        C502   1.344       .  A
N499        C500   1.345       .  A
C500        C501   1.385       .  A
C500        H503   1.082       .  S
C501        C502   1.384       .  A
C501        C661   1.479       .  S
C502        H504   1.082       .  S
N505        N506   1.321       .  A
N505        C509   1.348   1_554  A
N505       Cu513   2.078       .  S
N506        C507   1.340       .  A
N506       Cu512   2.076       .  S
C507        C508   1.387   1_554  A
C507        H510   1.080       .  S
C508        C509   1.390       .  A
C508        C591   1.491       .  S
C509        H511   1.081       .  S
Cu512       N515   2.075       .  S
Cu513       N523   2.078   1_565  S
Cu514       N516   2.076       .  S
Cu514       N522   2.077   1_565  S
N515        N516   1.320       .  A
N515        C519   1.345       .  A
N516        C517   1.345       .  A
C517        C518   1.389       .  A
C517        H520   1.081       .  S
C518        C519   1.390       .  A
C518        C598   1.490       .  S
C519        H521   1.081       .  S
N522        N523   1.323       .  A
N522        C526   1.344       .  A
N523        C524   1.346       .  A
C524        C525   1.384       .  A
C524        H527   1.082       .  S
C525        C526   1.383       .  A
C525        C781   1.476       .  S
C526        H528   1.082       .  S
N529        N530   1.322       .  A
N529        C533   1.348       .  A
N529       Cu537   2.079       .  S
N530        C531   1.342       .  A
N530       Cu536   2.075       .  S
C531        C532   1.386       .  A
C531        H534   1.081       .  S
C532        C533   1.387       .  A
C532        C588   1.484       .  S
C533        H535   1.082       .  S
Cu536       N539   2.075       .  S
Cu537       N547   2.079       .  S
Cu538       N540   2.066       .  S
Cu538       N546   2.067       .  S
N539        N540   1.320       .  A
N539        C543   1.345       .  A
N540        C541   1.344       .  A
C541        C542   1.386       .  A
C541        H544   1.081       .  S
C542        C543   1.387       .  A
C542        C578   1.483       .  S
C543        H545   1.082       .  S
N546        N547   1.323       .  A
N546        C550   1.342       .  A
N547        C548   1.347       .  A
C548        C549   1.384       .  A
C548        H551   1.082       .  S
C549        C550   1.381       .  A
C549        C628   1.474       .  S
C550        H552   1.082       .  S
N553        N554   1.322       .  A
N553        C557   1.346       .  A
N553       Cu561   2.079       .  S
N554        C555   1.342       .  A
N554       Cu560   2.069       .  S
C555        C556   1.382       .  A
C555        H558   1.082       .  S
C556        C557   1.387       .  A
C556        C581   1.477       .  S
C557        H559   1.082       .  S
Cu560       N563   2.069       .  S
Cu561       N571   2.078       .  S
Cu562       N564   2.066       .  S
Cu562       N570   2.068       .  S
N563        N564   1.319       .  A
N563        C567   1.343       .  A
N564        C565   1.344       .  A
C565        C566   1.388       .  A
C565        H568   1.081       .  S
C566        C567   1.387       .  A
C566        C608   1.484       .  S
C567        H569   1.082       .  S
N570        N571   1.322       .  A
N570        C574   1.341       .  A
N571        C572   1.347       .  A
C572        C573   1.387       .  A
C572        H575   1.082       .  S
C573        C574   1.383       .  A
C573        C901   1.481       .  S
C574        H576   1.082       .  S
C577        C578   1.409       .  A
C577        C582   1.398   1_556  A
C577        F584   1.357       .  S
C578        C579   1.407       .  A
C579        C580   1.400   1_556  A
C579        F586   1.358       .  S
C580        C581   1.405       .  A
C580        F585   1.358       .  S
C581        C582   1.405       .  A
C582        F583   1.358       .  S
C587        C588   1.407       .  A
C587        C592   1.405       .  A
C587        F594   1.358       .  S
C588        C589   1.406       .  A
C589        C590   1.394       .  A
C589        F596   1.357       .  S
C590        C591   1.409       .  A
C590        F595   1.356   1_556  S
C591        C592   1.411       .  A
C592        F593   1.357       .  S
C597        C598   1.412       .  A
C597        C602   1.403       .  A
C597        F604   1.357       .  S
C598        C599   1.410       .  A
C599        C600   1.397       .  A
C599        F606   1.356       .  S
C600        C601   1.404       .  A
C600        F605   1.358       .  S
C601        C602   1.403       .  A
C602        F603   1.358       .  S
C607        C608   1.411       .  A
C607        C612   1.399       .  A
C607        F614   1.357       .  S
C608        C609   1.407       .  A
C609        C610   1.397       .  A
C609        F616   1.358       .  S
C610        C611   1.404       .  A
C610        F615   1.358       .  S
C611        C612   1.404       .  A
C612        F613   1.358       .  S
C617        C618   1.408       .  A
C617        C622   1.401       .  A
C617        F624   1.357   1_565  S
C618        C619   1.406       .  A
C619        C620   1.397       .  A
C619        F626   1.358       .  S
C620        C621   1.408       .  A
C620        F625   1.358       .  S
C621        C622   1.405       .  A
C622        F623   1.358       .  S
C627        C628   1.405       .  A
C627        C632   1.397       .  A
C627        F634   1.358       .  S
C628        C629   1.404       .  A
C629        C630   1.400       .  A
C629        F636   1.358       .  S
C630        C631   1.408       .  A
C630        F635   1.357       .  S
C631        C632   1.408       .  A
C632        F633   1.358       .  S
C637        C638   1.405       .  A
C637        C642   1.399       .  A
C637        F644   1.358       .  S
C638        C639   1.404       .  A
C639        C640   1.399       .  A
C639        F646   1.358       .  S
C640        C641   1.408       .  A
C640        F645   1.358       .  S
C641        C642   1.411       .  A
C642        F643   1.356       .  S
C647        C648   1.403       .  A
C647        C652   1.398       .  A
C647        F654   1.358       .  S
C648        C649   1.403       .  A
C649        C650   1.393       .  A
C649        F656   1.358   1_655  S
C650        C651   1.410       .  A
C650        F655   1.357   1_655  S
C651        C652   1.412       .  A
C652        F653   1.356       .  S
C657        C658   1.409       .  A
C657        C662   1.399       .  A
C657        F664   1.357       .  S
C658        C659   1.408       .  A
C659        C660   1.397       .  A
C659        F666   1.358       .  S
C660        C661   1.405       .  A
C660        F665   1.357       .  S
C661        C662   1.406       .  A
C662        F663   1.358       .  S
C667        C668   1.406   1_655  A
C667        C672   1.399       .  A
C667        F674   1.358   1_655  S
C668        C669   1.408   1_455  A
C669        C670   1.399       .  A
C669        F676   1.357   1_655  S
C670        C671   1.405       .  A
C670        F675   1.358       .  S
C671        C672   1.406       .  A
C672        F673   1.357       .  S
C677        C678   1.405       .  A
C677        C682   1.399       .  A
C677        F684   1.358       .  S
C678        C679   1.407       .  A
C679        C680   1.395       .  A
C679        F686   1.357       .  S
C680        C681   1.404       .  A
C680        F685   1.358       .  S
C681        C682   1.408       .  A
C682        F683   1.358       .  S
C687        C688   1.404       .  A
C687        C692   1.400       .  A
C687        F694   1.358       .  S
C688        C689   1.403       .  A
C689        C690   1.395       .  A
C689        F696   1.358       .  S
C690        C691   1.413       .  A
C690        F695   1.355       .  S
C691        C692   1.411       .  A
C692        F693   1.356       .  S
C697        C698   1.404       .  A
C697        C702   1.396       .  A
C697        F704   1.358       .  S
C698        C699   1.405       .  A
C699        C700   1.397       .  A
C699        F706   1.358       .  S
C700        C701   1.411       .  A
C700        F705   1.356       .  S
C701        C702   1.408       .  A
C702        F703   1.357       .  S
C707        C708   1.410       .  A
C707        C712   1.403       .  A
C707        F714   1.358       .  S
C708        C709   1.407       .  A
C709        C710   1.396       .  A
C709        F716   1.357       .  S
C710        C711   1.406       .  A
C710        F715   1.358       .  S
C711        C712   1.407       .  A
C712        F713   1.357       .  S
C717        C718   1.406       .  A
C717        C722   1.401       .  A
C717        F724   1.358       .  S
C718        C719   1.406       .  A
C719        C720   1.398       .  A
C719        F726   1.357       .  S
C720        C721   1.409       .  A
C720        F725   1.357       .  S
C721        C722   1.410       .  A
C722        F723   1.357       .  S
C727        C728   1.404       .  A
C727        C732   1.398       .  A
C727        F734   1.355       .  S
C728        C729   1.404       .  A
C729        C730   1.399       .  A
C729        F736   1.358       .  S
C730        C731   1.408       .  A
C730        F735   1.358       .  S
C731        C732   1.405       .  A
C732        F733   1.358       .  S
C737        C738   1.406       .  A
C737        C742   1.403       .  A
C737        F744   1.358       .  S
C738        C739   1.405       .  A
C739        C740   1.397       .  A
C739        F746   1.358       .  S
C740        C741   1.413   1_565  A
C740        F745   1.356   1_565  S
C741        C742   1.409   1_545  A
C742        F743   1.357   1_565  S
C747        C748   1.407       .  A
C747        C752   1.401       .  A
C747        F754   1.358       .  S
C748        C749   1.412       .  A
C749        C750   1.395       .  A
C749        F756   1.356       .  S
C750        C751   1.405       .  A
C750        F755   1.358       .  S
C751        C752   1.409       .  A
C752        F753   1.357       .  S
C757        C758   1.408   1_554  A
C757        C762   1.402       .  A
C757        F764   1.358       .  S
C758        C759   1.405       .  A
C759        C760   1.397       .  A
C759        F766   1.357       .  S
C760        C761   1.408   1_556  A
C760        F765   1.357       .  S
C761        C762   1.407       .  A
C762        F763   1.358       .  S
C767        C768   1.404       .  A
C767        C772   1.398       .  A
C767        F774   1.358       .  S
C768        C769   1.404       .  A
C769        C770   1.398       .  A
C769        F776   1.358       .  S
C770        C771   1.409       .  A
C770        F775   1.357   1_554  S
C771        C772   1.407       .  A
C772        F773   1.358       .  S
C777        C778   1.410       .  A
C777        C782   1.403       .  A
C777        F784   1.358       .  S
C778        C779   1.410       .  A
C779        C780   1.396       .  A
C779        F786   1.357       .  S
C780        C781   1.403       .  A
C780        F785   1.358       .  S
C781        C782   1.404       .  A
C782        F783   1.358       .  S
C787        C788   1.407       .  A
C787        C792   1.396       .  A
C787        F794   1.357       .  S
C788        C789   1.406       .  A
C789        C790   1.399   1_565  A
C789        F796   1.358       .  S
C790        C791   1.407       .  A
C790        F795   1.358       .  S
C791        C792   1.406   1_545  A
C792        F793   1.358       .  S
C797        C798   1.404       .  A
C797        C802   1.398       .  A
C797        F804   1.358       .  S
C798        C799   1.407       .  A
C799        C800   1.398       .  A
C799        F806   1.357       .  S
C800        C801   1.410       .  A
C800        F805   1.357       .  S
C801        C802   1.407       .  A
C802        F803   1.358       .  S
C807        C808   1.412   1_655  A
C807        C812   1.401       .  A
C807        F814   1.357       .  S
C808        C809   1.409       .  A
C809        C810   1.392       .  A
C809        F816   1.357       .  S
C810        C811   1.400       .  A
C810        F815   1.358       .  S
C811        C812   1.401   1_455  A
C812        F813   1.358       .  S
C817        C818   1.405       .  A
C817        C822   1.397       .  A
C817        F824   1.358       .  S
C818        C819   1.406       .  A
C819        C820   1.398       .  A
C819        F826   1.358       .  S
C820        C821   1.407       .  A
C820        F825   1.357       .  S
C821        C822   1.407       .  A
C822        F823   1.358       .  S
C827        C828   1.409       .  A
C827        C832   1.400       .  A
C827        F834   1.358   1_545  S
C828        C829   1.407       .  A
C829        C830   1.399       .  A
C829        F836   1.357       .  S
C830        C831   1.405       .  A
C830        F835   1.358       .  S
C831        C832   1.405       .  A
C832        F833   1.358   1_545  S
C837        C838   1.409       .  A
C837        C842   1.398       .  A
C837        F844   1.357       .  S
C838        C839   1.407       .  A
C839        C840   1.397       .  A
C839        F846   1.358       .  S
C840        C841   1.406       .  A
C840        F845   1.358       .  S
C841        C842   1.408       .  A
C842        F843   1.357       .  S
C847        C848   1.406       .  A
C847        C852   1.396       .  A
C847        F854   1.358       .  S
C848        C849   1.407       .  A
C849        C850   1.401       .  A
C849        F856   1.358       .  S
C850        C851   1.409       .  A
C850        F855   1.357       .  S
C851        C852   1.409       .  A
C852        F853   1.357       .  S
C857        C858   1.406       .  A
C857        C862   1.398       .  A
C857        F864   1.358       .  S
C858        C859   1.406       .  A
C859        C860   1.402       .  A
C859        F866   1.358       .  S
C860        C861   1.407       .  A
C860        F865   1.358       .  S
C861        C862   1.406       .  A
C862        F863   1.358       .  S
C867        C868   1.410       .  A
C867        C872   1.396       .  A
C867        F874   1.357       .  S
C868        C869   1.412       .  A
C869        C870   1.400       .  A
C869        F876   1.357       .  S
C870        C871   1.401       .  A
C870        F875   1.358       .  S
C871        C872   1.405       .  A
C872        F873   1.358       .  S
C877        C878   1.408       .  A
C877        C882   1.396       .  A
C877        F884   1.357       .  S
C878        C879   1.407       .  A
C879        C880   1.399       .  A
C879        F886   1.358       .  S
C880        C881   1.403       .  A
C880        F885   1.358       .  S
C881        C882   1.404       .  A
C882        F883   1.358       .  S
C887        C888   1.406       .  A
C887        C892   1.397       .  A
C887        F894   1.357       .  S
C888        C889   1.408       .  A
C889        C890   1.401       .  A
C889        F896   1.357       .  S
C890        C891   1.407       .  A
C890        F895   1.357   1_455  S
C891        C892   1.409       .  A
C892        F893   1.357       .  S
C897        C898   1.409       .  A
C897        C902   1.400       .  A
C897        F904   1.358       .  S
C898        C899   1.407       .  A
C899        C900   1.396       .  A
C899        F906   1.357       .  S
C900        C901   1.406       .  A
C900        F905   1.358       .  S
C901        C902   1.407       .  A
C902        F903   1.357       .  S
C907        C908   1.405   1_556  A
C907        C912   1.398       .  A
C907        F914   1.358       .  S
C908        C909   1.407       .  A
C909        C910   1.396   1_554  A
C909        F916   1.358       .  S
C910        C911   1.407       .  A
C910        F915   1.357   1_556  S
C911        C912   1.408       .  A
C912        F913   1.357       .  S
C917        C918   1.407       .  A
C917        C922   1.397       .  A
C917        F924   1.358       .  S
C918        C919   1.406       .  A
C919        C920   1.399       .  A
C919        F926   1.358       .  S
C920        C921   1.403       .  A
C920        F925   1.358       .  S
C921        C922   1.403       .  A
C922        F923   1.358       .  S
C927        C928   1.408       .  A
C927        C932   1.401       .  A
C927        F934   1.358       .  S
C928        C929   1.404       .  A
C929        C930   1.394       .  A
C929        F936   1.358       .  S
C930        C931   1.405       .  A
C930        F935   1.358       .  S
C931        C932   1.408       .  A
C932        F933   1.357       .  S
