geometry optimzed in LAMMPS
_audit_creation_date              2020-12-01 
_audit_creation_method            'lammps2cif' 
_symmetry_space_group_name_H-M    'P1' 
_symmetry_Int_Tables_number       1 
_symmetry_cell_setting            triclinic 
loop_ 
_symmetry_equiv_pos_as_xyz 
  x,y,z 
_cell_length_a                    31.88546627 
_cell_length_b                    32.18557349835334 
_cell_length_c                    28.36536693474649 
_cell_angle_alpha                 89.90578473365406 
_cell_angle_beta                  90.2006201834762 
_cell_angle_gamma                 90.18656612699166 
loop_ 
_atom_site_label 
_atom_site_type_symbol 
_atom_site_fract_x 
_atom_site_fract_y 
_atom_site_fract_z 
_atom_site_charge 
In1        In  0.43853261  0.83665547  0.83973876     1.36900
C2          C  0.42052527  0.77155506  0.78471047     0.77900
O3          O  0.47093009  0.82497872  0.90895804    -0.60600
O4          O  0.40780628  0.80567571  0.90226854    -0.51500
C5          C  0.50848729  0.87836987  0.81838494     0.70600
O6          O  0.49905400  0.84411976  0.79932696    -0.46300
C7          C  0.38015967  0.89415331  0.82555779     0.75300
O8          O  0.44977443  0.77120630  0.81475388    -0.58200
O9          O  0.38115956  0.87262462  0.86274057    -0.48300
O10         O  0.40216449  0.80590933  0.78116744    -0.54600
C11         C  0.43978768  0.80791179  0.92838279     0.85400
O12         O  0.48317717  0.88970323  0.84984370    -0.56500
O13         O  0.40927361  0.88645511  0.79705582    -0.59800
In14       In  0.44513115  0.72765348  0.21377138     1.36900
C15         C  0.43159486  0.79705044  0.26265195     0.77900
O16         O  0.47603583  0.75876133  0.15134632    -0.60600
O17         O  0.41829260  0.72793540  0.14019815    -0.51500
C18         C  0.51366813  0.68558142  0.23949411     0.70600
O19         O  0.49543457  0.68091416  0.20033486    -0.46300
C20         C  0.37838529  0.67926437  0.23153414     0.75300
O21         O  0.42163223  0.76148594  0.27742165    -0.58200
O22         O  0.41561066  0.66659340  0.23538631    -0.48300
O23         O  0.45152411  0.79672832  0.22444676    -0.54600
C24         C  0.44724730  0.74969567  0.12253914     0.85400
O25         O  0.49770276  0.71332342  0.26505419    -0.56500
O26         O  0.37552122  0.71603481  0.21643835    -0.59800
In27       In  0.78438725  0.50519821  0.69900739     1.36900
C28         C  0.72042124  0.47307897  0.74624015     0.77900
O29         O  0.73280381  0.51654848  0.64600142    -0.60600
O30         O  0.79455916  0.51009008  0.62047652    -0.51500
C31         C  0.81729920  0.57419375  0.73584521     0.70600
O32         O  0.79689620  0.54839294  0.76007900    -0.46300
C33         C  0.84236558  0.44600305  0.70601429     0.75300
O34         O  0.75355690  0.45336871  0.73792093    -0.58200
O35         O  0.81338939  0.44549359  0.67564562    -0.48300
O36         O  0.72054359  0.51014568  0.73161162    -0.54600
C37         C  0.75626071  0.51477206  0.61043808     0.85400
O38         O  0.81819620  0.56588254  0.69243844    -0.56500
O39         O  0.84318441  0.47831729  0.73099436    -0.59800
In40       In  0.66751764  0.49112025  0.32996880     1.36900
C41         C  0.73317187  0.45569830  0.28958566     0.77900
O42         O  0.71761936  0.51396867  0.38046229    -0.60600
O43         O  0.66018908  0.49199920  0.40853421    -0.51500
C44         C  0.63110956  0.56098900  0.30099564     0.70600
O45         O  0.65641204  0.54094869  0.27574518    -0.46300
C46         C  0.60856903  0.43473634  0.30907608     0.75300
O47         O  0.72270549  0.49257270  0.28000456    -0.58200
O48         O  0.62679987  0.43555203  0.34856708    -0.48300
O49         O  0.70996774  0.43768150  0.31913388    -0.54600
C50         C  0.69648473  0.50599881  0.41695196     0.85400
O51         O  0.62674877  0.54678642  0.34214711    -0.56500
O52         O  0.61958455  0.46351515  0.28172583    -0.59800
In53       In  0.00551427  0.72977594  0.84230832     1.36900
C54         C  0.03560828  0.79838033  0.80277350     0.77900
O55         O  0.98064362  0.77286181  0.89819371    -0.60600
O56         O  0.01405544  0.71947498  0.92005115    -0.51500
C57         C  0.93736558  0.68994718  0.81153040     0.70600
O58         O  0.95399840  0.71966106  0.78953041    -0.46300
C59         C  0.06582822  0.67885507  0.81282195     0.75300
O60         O  0.99661963  0.79186476  0.80568660    -0.58200
O61         O  0.06178918  0.68837495  0.85575381    -0.48300
O62         O  0.05808037  0.77125276  0.82236410    -0.54600
C63         C  0.99524676  0.75215268  0.93223591     0.85400
O64         O  0.95422055  0.68210710  0.85077653    -0.56500
O65         O  0.03767953  0.69338177  0.78635779    -0.59800
In66       In  0.99994506  0.82825941  0.21750499     1.36900
C67         C  0.02217650  0.76204561  0.26862216     0.77900
O68         O  0.00007008  0.84017364  0.13925439    -0.60600
O69         O  0.98801288  0.77891256  0.16288636    -0.51500
C70         C  0.93103800  0.86663249  0.24882843     0.70600
O71         O  0.93944652  0.86295649  0.20571206    -0.46300
C72         C  0.06599754  0.87927959  0.22238081     0.75300
O73         O  0.04134982  0.79627577  0.27030753    -0.58200
O74         O  0.06673150  0.84459025  0.20185270    -0.48300
O75         O  0.98962374  0.76255989  0.24315714    -0.54600
C76         C  0.99283386  0.80287841  0.12818901     0.85400
O77         O  0.95640064  0.84813339  0.27565250    -0.56500
O78         O  0.03064140  0.88885159  0.23873234    -0.59800
In79       In  0.65993150  0.06221808  0.70038619     1.36900
C80         C  0.72424924  0.09241204  0.75055185     0.77900
O81         O  0.71100007  0.05337559  0.64748160    -0.60600
O82         O  0.64856972  0.05434962  0.62211637    -0.51500
C83         C  0.62799065  0.99387653  0.74042478     0.70600
O84         O  0.64189873  0.02444446  0.76332586    -0.46300
C85         C  0.60224062  0.12189065  0.70028437     0.75300
O86         O  0.72471225  0.05717724  0.73106860    -0.58200
O87         O  0.63671908  0.12513605  0.67896090    -0.48300
O88         O  0.68989055  0.11128485  0.74649332    -0.54600
C89         C  0.68702751  0.05205172  0.61214777     0.85400
O90         O  0.63308829  0.99681436  0.69650244    -0.56500
O91         O  0.59625048  0.08691150  0.71907398    -0.59800
In92       In  0.77525939  0.06222994  0.33162088     1.36900
C93         C  0.70664151  0.09410073  0.29142837     0.77900
O94         O  0.73049717  0.04039844  0.38712680    -0.60600
O95         O  0.78546135  0.07177617  0.40956341    -0.51500
C96         C  0.81249461  0.99113972  0.30722111     0.70600
O97         O  0.78541113  0.00843204  0.28141189    -0.46300
C98         C  0.83262485  0.11743832  0.30345506     0.75300
O99         O  0.71229391  0.05538022  0.29459581    -0.58200
O100        O  0.81873322  0.11668930  0.34507506    -0.48300
O101        O  0.73544287  0.11568833  0.30960015    -0.54600
C102        C  0.75152426  0.05447501  0.42132533     0.85400
O103        O  0.81858370  0.00928907  0.34596385    -0.56500
O104        O  0.81794789  0.08922705  0.27732529    -0.59800
In105      In  0.94048595  0.22953175  0.81762160     1.36900
C106        C  0.92115039  0.29592154  0.76646428     0.77900
O107        O  0.87427581  0.21018712  0.83501881    -0.60600
O108        O  0.90954456  0.17185786  0.78968867    -0.51500
C109        C  0.00908241  0.19096113  0.78711616     0.70600
O110        O  0.98497468  0.21065262  0.75991491    -0.46300
C111        C  0.95127910  0.25591861  0.90614050     0.75300
O112        O  0.95606411  0.29219565  0.78711340    -0.58200
O113        O  0.95127235  0.27990454  0.87105962    -0.48300
O114        O  0.89723607  0.26491040  0.77030538    -0.54600
C115        C  0.87473981  0.17835727  0.80910793     0.85400
O116        O  0.99892162  0.19281614  0.82990581    -0.56500
O117        O  0.94571791  0.21815965  0.89598959    -0.59800
In118      In  0.94556425  0.32914878  0.18836591     1.36900
C119        C  0.92323488  0.25528996  0.22291382     0.77900
O120        O  0.90465793  0.35215962  0.24641130    -0.60600
O121        O  0.88860068  0.36904677  0.17661357    -0.51500
C122        C  0.01259110  0.37368097  0.21271025     0.70600
O123        O  0.00804451  0.33612293  0.22421623    -0.46300
C124        C  0.95724769  0.31322882  0.09824742     0.75300
O125        O  0.94518941  0.28092774  0.24588288    -0.58200
O126        O  0.92933531  0.33774650  0.11272410    -0.48300
O127        O  0.91454211  0.26673179  0.18155380    -0.54600
C128        C  0.87936739  0.37076712  0.21970625     0.85400
O129        O  0.98371545  0.38786599  0.18709243    -0.56500
O130        O  0.98019165  0.29774651  0.13014052    -0.59800
In131      In  0.16490854  0.55479988  0.33568250     1.36900
C132        C  0.23137753  0.59003119  0.29539823     0.77900
O133        O  0.11263094  0.58643093  0.29654512    -0.60600
O134        O  0.13014951  0.61018601  0.36345966    -0.51500
C135        C  0.12876907  0.48831578  0.29721340     0.70600
O136        O  0.15073119  0.51370830  0.27409170    -0.46300
C137        C  0.19206978  0.53825570  0.42231672     0.75300
O138        O  0.22768140  0.55111843  0.29918825    -0.58200
O139        O  0.15501958  0.54958315  0.41344560    -0.48300
O140        O  0.20118978  0.61033456  0.31194090    -0.54600
C141        C  0.10721835  0.61400849  0.32739779     0.85400
O142        O  0.12728434  0.49562640  0.34079283    -0.56500
O143        O  0.21452195  0.53318297  0.38633127    -0.59800
In144      In  0.28095506  0.56576063  0.69945164     1.36900
C145        C  0.21347401  0.59693793  0.74116883     0.77900
O146        O  0.33203889  0.59539349  0.74284033    -0.60600
O147        O  0.31482464  0.62472559  0.67913685    -0.51500
C148        C  0.32014984  0.49700831  0.72600268     0.70600
O149        O  0.29431469  0.51546115  0.75219144    -0.46300
C150        C  0.25232870  0.54692472  0.61378453     0.75300
O151        O  0.22881788  0.56252566  0.75372948    -0.58200
O152        O  0.28783805  0.56311331  0.62108578    -0.48300
O153        O  0.23316018  0.61489522  0.70852339    -0.54600
C154        C  0.33751616  0.62573469  0.71554244     0.85400
O155        O  0.32402811  0.51273680  0.68551662    -0.56500
O156        O  0.23184513  0.53898580  0.65070997    -0.59800
In157      In  0.27989374  0.99500010  0.33172878     1.36900
C158        C  0.21637184  0.96335254  0.28230569     0.77900
O159        O  0.34055879  0.97081444  0.30392667    -0.60600
O160        O  0.30972068  0.93473737  0.35560827    -0.51500
C161        C  0.31184051  0.06530801  0.29544518     0.70600
O162        O  0.29366308  0.03814111  0.27077714    -0.46300
C163        C  0.25023376  0.00516501  0.41898148     0.75300
O164        O  0.21683294  0.00044345  0.29677078    -0.58200
O165        O  0.28890047  0.00431744  0.40972737    -0.48300
O166        O  0.24931189  0.94334750  0.29140510    -0.54600
C167        C  0.34026470  0.93774773  0.32769164     0.85400
O168        O  0.31113571  0.05764185  0.33904600    -0.56500
O169        O  0.22687065  0.00193158  0.38335378    -0.59800
In170      In  0.17223051  0.00263659  0.70296203     1.36900
C171        C  0.24150712  0.98599157  0.75211038     0.77900
O172        O  0.16041007  0.93369999  0.70239715    -0.60600
O173        O  0.11141605  0.97297330  0.72485343    -0.51500
C174        C  0.13163618  0.07097710  0.72885026     0.70600
O175        O  0.12657383  0.05372490  0.68943992    -0.46300
C176        C  0.19420322  0.00956267  0.61276004     0.75300
O177        O  0.20522454  0.98058127  0.76848962    -0.58200
O178        O  0.16627468  0.98453991  0.62675739    -0.48300
O179        O  0.24207473  0.00246327  0.71187345    -0.54600
C180        C  0.12391236  0.93625469  0.71911038     0.85400
O181        O  0.15931096  0.05436487  0.75439426    -0.56500
O182        O  0.20989151  0.03180388  0.64486881    -0.59800
In183      In  0.50814906  0.33465411  0.81669939     1.36900
C184        C  0.52148291  0.26934461  0.76146707     0.77900
O185        O  0.53585927  0.39897787  0.80749510    -0.60600
O186        O  0.57645355  0.34758829  0.81593699    -0.51500
C187        C  0.44156725  0.37650831  0.78686277     0.70600
O188        O  0.46051705  0.35077253  0.76119136    -0.46300
C189        C  0.50352386  0.30656055  0.90572639     0.75300
O190        O  0.49833180  0.26786454  0.79737849    -0.58200
O191        O  0.47206713  0.30941885  0.87888624    -0.48300
O192        O  0.53532623  0.30503006  0.75215592    -0.54600
C193        C  0.57308967  0.38595480  0.80820561     0.85400
O194        O  0.45619117  0.37978373  0.82811527    -0.56500
O195        O  0.53716524  0.31913138  0.88738878    -0.59800
In196      In  0.49682990  0.22579706  0.18963232     1.36900
C197        C  0.51499316  0.29665949  0.23376286     0.77900
O198        O  0.56656504  0.21689960  0.19475920    -0.60600
O199        O  0.52809163  0.16511811  0.20954013    -0.51500
C200        C  0.42807298  0.18670287  0.22176645     0.70600
O201        O  0.44606361  0.21541820  0.24432577    -0.46300
C202        C  0.49226291  0.24440923  0.09774155     0.75300
O203        O  0.51858138  0.26155588  0.25301298    -0.58200
O204        O  0.52019128  0.22127546  0.11521492    -0.48300
O205        O  0.49841155  0.29561506  0.19342594    -0.54600
C206        C  0.56481763  0.17975604  0.20851883     0.85400
O207        O  0.44414587  0.17963963  0.18203292    -0.56500
O208        O  0.46491198  0.25593331  0.12695521    -0.59800
C209        C  0.46232511  0.29093832  0.97821815    -0.12000
C210        C  0.50087897  0.28981323  0.95447421     0.05100
C211        C  0.53594501  0.27248113  0.97779057    -0.07200
C212        C  0.53187595  0.25694541  0.02373422    -0.08000
C213        C  0.49353337  0.25870700  0.04786885    -0.02500
C214        C  0.45844762  0.27605182  0.02455814     0.04300
N215        N  0.41851641  0.27840777  0.04702818     0.66800
H216        H  0.43499729  0.30407951  0.96094703     0.15700
H217        H  0.55931930  0.24395002  0.04091679     0.15400
N218        N  0.57572669  0.26935777  0.95504925     0.74500
O219        O  0.40781768  0.31178329  0.06685323    -0.39000
O220        O  0.39095711  0.25138058  0.03776972    -0.38900
O221        O  0.60520890  0.29326449  0.96740400    -0.39600
O222        O  0.58392926  0.23743277  0.93106993    -0.39700
C223        C  0.35479512  0.12955409  0.30595068    -0.12000
C224        C  0.33496138  0.10141546  0.27522870     0.05100
C225        C  0.34163318  0.10593854  0.22621405    -0.07200
C226        C  0.37046651  0.13542923  0.20957291    -0.08000
C227        C  0.39263283  0.16149712  0.24058165    -0.02500
C228        C  0.38307182  0.15959557  0.28919221     0.04300
N229        N  0.40339629  0.18622120  0.32247623     0.66800
H230        H  0.34964635  0.12726125  0.34366290     0.15700
H231        H  0.37653250  0.13693897  0.17198486     0.15400
N232        N  0.32084567  0.07980273  0.19278688     0.74500
O233        O  0.38563944  0.21946237  0.33471002    -0.39000
O234        O  0.43321286  0.17225154  0.34713266    -0.38900
O235        O  0.28865597  0.09309781  0.17169413    -0.39600
O236        O  0.33955901  0.04832822  0.17691718    -0.39700
C237        C  0.26097931  0.02393629  0.50300498    -0.12000
C238        C  0.23405102  0.00902052  0.46769191     0.05100
C239        C  0.19299572  0.99653209  0.48020681    -0.07200
C240        C  0.18060772  0.99739163  0.52753452    -0.08000
C241        C  0.20779154  0.01180131  0.56292699    -0.02500
C242        C  0.24811820  0.02611416  0.55004827     0.04300
N243        N  0.27720837  0.04124145  0.58438750     0.66800
H244        H  0.29254558  0.03400607  0.49408901     0.15700
H245        H  0.14931499  0.98663512  0.53664747     0.15400
N246        N  0.16382733  0.98183024  0.44566524     0.74500
O247        O  0.30803639  0.01891197  0.59582718    -0.39000
O248        O  0.27840402  0.07964306  0.59317598    -0.38900
O249        O  0.15640698  0.94339482  0.44259855    -0.39600
O250        O  0.13926464  0.00725307  0.42604325    -0.39700
C251        C  0.36928439  0.43956975  0.70806679    -0.12000
C252        C  0.34592656  0.46143704  0.74172929     0.05100
C253        C  0.35095168  0.45138952  0.78987111    -0.07200
C254        C  0.38112617  0.42230233  0.80355795    -0.08000
C255        C  0.40616747  0.40219503  0.77008382    -0.02500
C256        C  0.39890313  0.40986506  0.72171208     0.04300
N257        N  0.42269072  0.38949004  0.68599676     0.66800
H258        H  0.36547230  0.44636904  0.67090577     0.15700
H259        H  0.38575136  0.41631782  0.84078573     0.15400
N260        N  0.32730354  0.47183706  0.82561660     0.74500
O261        O  0.40847711  0.35668804  0.66750423    -0.39000
O262        O  0.45254888  0.40855601  0.66634922    -0.38900
O263        O  0.29599808  0.45368818  0.84344092    -0.39600
O264        O  0.34223548  0.50370222  0.84546100    -0.39700
C265        C  0.17929110  0.53503163  0.50849091    -0.12000
C266        C  0.20800505  0.53380307  0.47114475     0.05100
C267        C  0.25136555  0.53275455  0.48159438    -0.07200
C268        C  0.26495749  0.53575950  0.52843813    -0.08000
C269        C  0.23623163  0.53909636  0.56560034    -0.02500
C270        C  0.19288324  0.53754305  0.55535179     0.04300
N271        N  0.16218494  0.54152659  0.59160839     0.66800
H272        H  0.14580665  0.53569233  0.50125738     0.15700
H273        H  0.29844800  0.53633918  0.53569381     0.15400
N274        N  0.28209410  0.53061981  0.44512465     0.74500
O275        O  0.14894200  0.57716697  0.60236747    -0.39000
O276        O  0.14180935  0.50986527  0.60457808    -0.38900
O277        O  0.30026507  0.56338063  0.43152937    -0.39600
O278        O  0.29650864  0.49575353  0.43312231    -0.39700
C279        C  0.09203744  0.46066906  0.22696972    -0.12000
C280        C  0.10416503  0.45505019  0.27418903     0.05100
C281        C  0.08892532  0.42020609  0.29914566    -0.07200
C282        C  0.06133598  0.39248093  0.27703441    -0.08000
C283        C  0.04706847  0.39971718  0.23094819    -0.02500
C284        C  0.06306230  0.43393079  0.20554093     0.04300
N285        N  0.04952672  0.44262467  0.15846732     0.66800
H286        H  0.10316810  0.48741043  0.20730483     0.15700
H287        H  0.04906928  0.36646049  0.29709702     0.15400
N288        N  0.09983310  0.41324100  0.34738963     0.74500
O289        O  0.01949680  0.46743327  0.15187387    -0.39000
O290        O  0.07331829  0.43387189  0.12447311    -0.38900
O291        O  0.07395644  0.42259904  0.37918581    -0.39600
O292        O  0.13011566  0.38959969  0.35723597    -0.39700
C293        C  0.07048922  0.14641212  0.80469842    -0.12000
C294        C  0.04487718  0.16564945  0.77077581     0.05100
C295        C  0.05168581  0.15689176  0.72262227    -0.07200
C296        C  0.08162976  0.12738180  0.70978697    -0.08000
C297        C  0.10544980  0.10633925  0.74393320    -0.02500
C298        C  0.10054257  0.11702976  0.79183913     0.04300
N299        N  0.12358070  0.09641904  0.82823311     0.66800
H300        H  0.06605163  0.15287763  0.84188667     0.15700
H301        H  0.08527624  0.11995197  0.67271717     0.15400
N302        N  0.02734509  0.17612953  0.68632883     0.74500
O303        O  0.15524399  0.11408397  0.84605917    -0.39000
O304        O  0.10714738  0.06595975  0.84938533    -0.38900
O305        O  0.04220687  0.20708449  0.66465606    -0.39600
O306        O  0.99631055  0.15696347  0.66908933    -0.39700
C307        C  0.94410626  0.31219182  0.96551177    -0.12000
C308        C  0.95632957  0.27132119  0.95495930     0.05100
C309        C  0.97241780  0.24601047  0.99141341    -0.07200
C310        C  0.97479602  0.26128032  0.03746227    -0.08000
C311        C  0.96072928  0.30130831  0.04830748    -0.02500
C312        C  0.94604465  0.32728119  0.01177352     0.04300
N313        N  0.93295935  0.36893004  0.02117725     0.66800
H314        H  0.93215667  0.33227717  0.93789066     0.15700
H315        H  0.98606802  0.24096117  0.06524302     0.15400
N316        N  0.98654988  0.20473271  0.98244635     0.74500
O317        O  0.95940900  0.39575055  0.03449626    -0.39000
O318        O  0.89450091  0.37802039  0.02006002    -0.38900
O319        O  0.02535298  0.19804801  0.97856044    -0.39600
O320        O  0.96205918  0.17459387  0.98998074    -0.39700
C321        C  0.90071567  0.21461228  0.29293154    -0.12000
C322        C  0.90635554  0.21662623  0.24391060     0.05100
C323        C  0.89194393  0.18338069  0.21580774    -0.07200
C324        C  0.86997308  0.15046055  0.23652797    -0.08000
C325        C  0.86163199  0.14978160  0.28513233    -0.02500
C326        C  0.87856416  0.18167597  0.31371955     0.04300
N327        N  0.87287654  0.18176794  0.36365251     0.66800
H328        H  0.91192692  0.23969240  0.31517031     0.15700
H329        H  0.85809513  0.12596344  0.21390123     0.15400
N330        N  0.89906793  0.18256226  0.16610649     0.74500
O331        O  0.90070546  0.16593414  0.38974940    -0.39000
O332        O  0.84582233  0.20544817  0.38158184    -0.38900
O333        O  0.92903216  0.16135707  0.15013352    -0.39600
O334        O  0.87054271  0.19463335  0.13839883    -0.39700
C335        C  0.59732240  0.11537830  0.24178481    -0.12000
C336        C  0.60224669  0.15624611  0.22489492     0.05100
C337        C  0.64230375  0.17506766  0.22797952    -0.07200
C338        C  0.67552231  0.15383830  0.24928939    -0.08000
C339        C  0.67031503  0.11362654  0.26747952    -0.02500
C340        C  0.63088935  0.09398558  0.26284614     0.04300
N341        N  0.62362701  0.05345710  0.28179673     0.66800
H342        H  0.56692389  0.10033425  0.24004631     0.15700
H343        H  0.70573080  0.16921616  0.25182100     0.15400
N344        N  0.64986302  0.21613902  0.21072768     0.74500
O345        O  0.61036293  0.04975693  0.32345981    -0.39000
O346        O  0.62202024  0.02263556  0.25441569    -0.38900
O347        O  0.64909077  0.24632450  0.23904368    -0.39600
O348        O  0.66636902  0.22090787  0.17070951    -0.39700
C349        C  0.58460758  0.19584371  0.68593583    -0.12000
C350        C  0.57361538  0.15759313  0.70639762     0.05100
C351        C  0.53926175  0.15608488  0.73768861    -0.07200
C352        C  0.52003725  0.19294891  0.75186758    -0.08000
C353        C  0.53433589  0.23163445  0.73558260    -0.02500
C354        C  0.56533322  0.23273733  0.70008837     0.04300
N355        N  0.57969430  0.27107353  0.68028443     0.66800
H356        H  0.61019243  0.19761793  0.66091781     0.15700
H357        H  0.49562429  0.19130147  0.77833400     0.15400
N358        N  0.52546998  0.11792126  0.75832485     0.74500
O359        O  0.61355233  0.28696220  0.69489960    -0.39000
O360        O  0.56382398  0.28386222  0.64214231    -0.38900
O361        O  0.53858031  0.10784571  0.79877416    -0.39600
O362        O  0.49380948  0.09963043  0.74132711    -0.39700
C363        C  0.79764448  0.16673342  0.81535664    -0.12000
C364        C  0.83689346  0.15258175  0.79986384     0.05100
C365        C  0.83851258  0.11603397  0.77237155    -0.07200
C366        C  0.80142034  0.09555790  0.75964615    -0.08000
C367        C  0.76208414  0.11114060  0.77258160    -0.02500
C368        C  0.76040842  0.14668701  0.80172439     0.04300
N369        N  0.72131576  0.16334293  0.81719469     0.66800
H370        H  0.79559561  0.19456411  0.83669892     0.15700
H371        H  0.80349010  0.06846917  0.73710104     0.15400
N372        N  0.87729711  0.10030412  0.75488432     0.74500
O373        O  0.70611202  0.15117112  0.85585452    -0.39000
O374        O  0.70758257  0.19624687  0.79854480    -0.38900
O375        O  0.89434988  0.06983443  0.77528261    -0.39600
O376        O  0.88925116  0.11055595  0.71411003    -0.39700
C377        C  0.74579717  0.05963827  0.55546081    -0.12000
C378        C  0.70341214  0.04982168  0.56333450     0.05100
C379        C  0.67766506  0.04014640  0.52427706    -0.07200
C380        C  0.69439192  0.04091893  0.47870239    -0.08000
C381        C  0.73646496  0.05184126  0.47068489    -0.02500
C382        C  0.76237435  0.06110632  0.50981714     0.04300
N383        N  0.80544924  0.07237131  0.50408133     0.66800
H384        H  0.76614439  0.06738478  0.58489266     0.15700
H385        H  0.67389473  0.03363600  0.44925035     0.15400
N386        N  0.63450087  0.02936667  0.53004925     0.74500
O387        O  0.81537864  0.11029038  0.50147312    -0.39000
O388        O  0.83354559  0.04580163  0.51238377    -0.38900
O389        O  0.60662320  0.05561719  0.51970588    -0.39600
O390        O  0.62437876  0.99169404  0.53507522    -0.39700
C391        C  0.14335676  0.88480546  0.22477724    -0.12000
C392        C  0.10440787  0.90441314  0.22992714     0.05100
C393        C  0.10336899  0.94562856  0.24687819    -0.07200
C394        C  0.14059040  0.96505320  0.26148772    -0.08000
C395        C  0.17918429  0.94420625  0.25954572    -0.02500
C396        C  0.18048304  0.90408383  0.23947930     0.04300
N397        N  0.21894184  0.88178297  0.23497231     0.66800
H398        H  0.14497747  0.85332855  0.21140273     0.15700
H399        H  0.13895480  0.99614478  0.27595346     0.15400
N400        N  0.06495877  0.96823086  0.24962517     0.74500
O401        O  0.22966405  0.85659481  0.26692308    -0.39000
O402        O  0.23651447  0.87994864  0.19524688    -0.38900
O403        O  0.04892731  0.97530908  0.28940959    -0.39600
O404        O  0.05275179  0.98881813  0.21428346    -0.39700
C405        C  0.02467527  0.68478965  0.27483742    -0.12000
C406        C  0.03853641  0.72373077  0.29123190     0.05100
C407        C  0.07123535  0.72509471  0.32502512    -0.07200
C408        C  0.09114907  0.68840659  0.33900207    -0.08000
C409        C  0.07936257  0.65000111  0.31989109    -0.02500
C410        C  0.04463670  0.64805081  0.28907748     0.04300
N411        N  0.02944255  0.60897464  0.27209957     0.66800
H412        H  0.99917057  0.68288288  0.24942594     0.15700
H413        H  0.11767232  0.69035961  0.36308106     0.15400
N414        N  0.08555224  0.76352927  0.34450555     0.74500
O415        O  0.01220808  0.58375080  0.30016648    -0.39000
O416        O  0.03589695  0.59838331  0.22994135    -0.38900
O417        O  0.07110641  0.77550083  0.38352612    -0.39600
O418        O  0.11848658  0.78019524  0.32860598    -0.39700
C419        C  0.86555018  0.90702931  0.23413093    -0.12000
C420        C  0.89611238  0.89286371  0.26613111     0.05100
C421        C  0.89525571  0.90778859  0.31290087    -0.07200
C422        C  0.86610723  0.93799919  0.32581569    -0.08000
C423        C  0.83732297  0.95423419  0.29313816    -0.02500
C424        C  0.83616739  0.93728284  0.24717927     0.04300
N425        N  0.80667551  0.95143984  0.21271819     0.66800
H426        H  0.86536235  0.89568301  0.19816141     0.15700
H427        H  0.86737644  0.95011415  0.36143965     0.15400
N428        N  0.92575739  0.89512880  0.34696291     0.74500
O429        O  0.81664919  0.98083273  0.18543545    -0.39000
O430        O  0.77527734  0.92908761  0.20283807    -0.38900
O431        O  0.95673409  0.91845740  0.35553816    -0.39600
O432        O  0.91719638  0.86583774  0.37496679    -0.39700
C433        C  0.12516780  0.62877556  0.82405071    -0.12000
C434        C  0.10181598  0.65499710  0.79420387     0.05100
C435        C  0.11490755  0.66028358  0.74705479    -0.07200
C436        C  0.15101955  0.64062147  0.73107662    -0.08000
C437        C  0.17472490  0.61496286  0.76076960    -0.02500
C438        C  0.16123243  0.60838958  0.80753720     0.04300
N439        N  0.18476501  0.58290768  0.83925518     0.66800
H440        H  0.11574334  0.62451185  0.86032439     0.15700
H441        H  0.16068244  0.64574825  0.69498939     0.15400
N442        N  0.09325070  0.68732442  0.71531528     0.74500
O443        O  0.21414342  0.59876290  0.86318532    -0.39000
O444        O  0.17159490  0.54699384  0.84940893    -0.38900
O445        O  0.10761533  0.72328196  0.70772660    -0.39600
O446        O  0.06592551  0.67245806  0.68777913    -0.39700
C447        C  0.09426037  0.82706680  0.75688476    -0.12000
C448        C  0.05474996  0.83345933  0.77704413     0.05100
C449        C  0.03578132  0.87276298  0.77282427    -0.07200
C450        C  0.05808259  0.90560292  0.75187979    -0.08000
C451        C  0.09875803  0.89965598  0.73389271    -0.02500
C452        C  0.11601693  0.85932240  0.73488371     0.04300
N453        N  0.15614751  0.85057711  0.71507353     0.66800
H454        H  0.10878089  0.79668139  0.75864594     0.15700
H455        H  0.04394801  0.93618453  0.75102534     0.15400
N456        N  0.99507774  0.88044387  0.79176207     0.74500
O457        O  0.18785437  0.84879928  0.74173353    -0.39000
O458        O  0.15814038  0.83537369  0.67416879    -0.38900
O459        O  0.99165929  0.89439025  0.83311112    -0.39600
O460        O  0.96367364  0.88094284  0.76457640    -0.39700
C461        C  0.00207203  0.73644002  0.01791807    -0.12000
C462        C  0.99163064  0.76505510  0.98234278     0.05100
C463        C  0.97942344  0.80559669  0.99557650    -0.07200
C464        C  0.97960946  0.81703953  0.04323592    -0.08000
C465        C  0.99080077  0.78863049  0.07860233    -0.02500
C466        C  0.00134343  0.74764167  0.06561844     0.04300
N467        N  0.01315884  0.71746941  0.10017713     0.66800
H468        H  0.01124731  0.70504699  0.00870216     0.15700
H469        H  0.97106338  0.84857590  0.05262088     0.15400
N470        N  0.96769776  0.83592539  0.96119327     0.74500
O471        O  0.98599965  0.69237827  0.11567081    -0.39000
O472        O  0.05151168  0.71053476  0.10783326    -0.38900
O473        O  0.92959142  0.84565164  0.95661646    -0.39600
O474        O  0.99554374  0.85867457  0.94288262    -0.39700
C475        C  0.54691658  0.33341530  0.30214948    -0.12000
C476        C  0.53202738  0.33502204  0.25550218     0.05100
C477        C  0.53833420  0.37174005  0.22908777    -0.07200
C478        C  0.56124392  0.40464184  0.24854802    -0.08000
C479        C  0.57859431  0.40196560  0.29403635    -0.02500
C480        C  0.56989536  0.36641580  0.32161698     0.04300
N481        N  0.58533582  0.36247967  0.36873876     0.66800
H482        H  0.54208266  0.30569281  0.32322690     0.15700
H483        H  0.56710513  0.43176638  0.22680355     0.13800
N484        N  0.52443396  0.37521110  0.18129304     0.74500
O485        O  0.56164210  0.37153262  0.40271677    -0.39000
O486        O  0.61810279  0.34162822  0.37644923    -0.38900
O487        O  0.49177829  0.39574411  0.17204225    -0.39600
O488        O  0.54910157  0.36574415  0.14833978    -0.39700
C489        C  0.82203304  0.42232008  0.20893135    -0.12000
C490        C  0.84193568  0.39252646  0.23744917     0.05100
C491        C  0.82541746  0.38375530  0.28248687    -0.07200
C492        C  0.79006140  0.40487415  0.29821062    -0.08000
C493        C  0.77044446  0.43498883  0.27014505    -0.02500
C494        C  0.78658676  0.44370157  0.22493428     0.04300
N495        N  0.76641646  0.47258831  0.19408266     0.66800
H496        H  0.83405355  0.42913595  0.17404131     0.15700
H497        H  0.77791679  0.39763262  0.33295821     0.15400
N498        N  0.84324205  0.35255778  0.31226674     0.74500
O499        O  0.78079565  0.50902126  0.19053298    -0.39000
O500        O  0.74132780  0.45923661  0.16306857    -0.38900
O501        O  0.86553823  0.36328638  0.34703846    -0.39600
O502        O  0.82967272  0.31574628  0.30982418    -0.39700
C503        C  0.85938608  0.37204412  0.69238980    -0.12000
C504        C  0.86986490  0.40973554  0.71442768     0.05100
C505        C  0.90233381  0.41008408  0.74851773    -0.07200
C506        C  0.92115178  0.37269759  0.76225485    -0.08000
C507        C  0.90768600  0.33469624  0.74331528    -0.02500
C508        C  0.87754619  0.33467236  0.70686807     0.04300
N509        N  0.86408507  0.29687337  0.68511705     0.66800
H510        H  0.83495594  0.37101899  0.66571567     0.15700
H511        H  0.94445565  0.37319475  0.79020717     0.15400
N512        N  0.91509023  0.44760067  0.77139002     0.74500
O513        O  0.83131237  0.27899000  0.69969454    -0.39000
O514        O  0.87904942  0.28684936  0.64563532    -0.38900
O515        O  0.90244503  0.45503541  0.81262552    -0.39600
O516        O  0.94554972  0.46808756  0.75501345    -0.39700
C517        C  0.64422886  0.47238509  0.76355276    -0.12000
C518        C  0.68362931  0.45353244  0.76868050     0.05100
C519        C  0.68632169  0.41449358  0.79122539    -0.07200
C520        C  0.64990662  0.39460453  0.80645476    -0.08000
C521        C  0.61025025  0.41209668  0.79861353    -0.02500
C522        C  0.60755820  0.45184888  0.77763754     0.04300
N523        N  0.56801882  0.47041555  0.76682820     0.66800
H524        H  0.64152659  0.50213028  0.74588208     0.15700
H525        H  0.65273638  0.36424522  0.82270091     0.15400
N526        N  0.72547951  0.39360667  0.79726047     0.74500
O527        O  0.55547548  0.50072803  0.79108305    -0.39000
O528        O  0.55106324  0.46327887  0.72737967    -0.38900
O529        O  0.74370855  0.39491213  0.83678028    -0.39600
O530        O  0.73640896  0.36662914  0.76752630    -0.39700
C531        C  0.86583071  0.63357880  0.72577067    -0.12000
C532        C  0.84151104  0.60919482  0.75635622     0.05100
C533        C  0.84575606  0.61521010  0.80555067    -0.07200
C534        C  0.87623760  0.64277332  0.82289749    -0.08000
C535        C  0.90231597  0.66508452  0.79211826    -0.02500
C536        C  0.89621031  0.66100053  0.74304671     0.04300
N537        N  0.92334067  0.68111913  0.71008725     0.66800
H538        H  0.86324675  0.62951985  0.68798673     0.15700
H539        H  0.88012650  0.64603158  0.86064706     0.15400
N540        N  0.82045273  0.59283442  0.83849874     0.74500
O541        O  0.95672754  0.66329680  0.69771054    -0.39000
O542        O  0.90974331  0.71126287  0.68607781    -0.38900
O543        O  0.83582069  0.56214370  0.86015789    -0.39600
O544        O  0.78723293  0.60922551  0.85364132    -0.39700
C545        C  0.76916346  0.51660650  0.52366129    -0.12000
C546        C  0.74034415  0.51635059  0.56103128     0.05100
C547        C  0.69700923  0.51495708  0.55016363    -0.07200
C548        C  0.68370982  0.51240652  0.50311834    -0.08000
C549        C  0.71252240  0.51167169  0.46584177    -0.02500
C550        C  0.75578904  0.51443773  0.47652811     0.04300
N551        N  0.78672205  0.51309952  0.44025749     0.66800
H552        H  0.80261718  0.51759080  0.53102184     0.15700
H553        H  0.65027898  0.51060748  0.49577749     0.15400
N554        N  0.66594405  0.51507958  0.58633843     0.74500
O555        O  0.80446561  0.54631746  0.42741678    -0.39000
O556        O  0.80245826  0.47865507  0.42879351    -0.38900
O557        O  0.64913736  0.54895916  0.59801186    -0.39600
O558        O  0.64913794  0.48127064  0.59879833    -0.39700
C559        C  0.39267286  0.83205425  0.32690752    -0.12000
C560        C  0.41731742  0.83555833  0.28611670     0.05100
C561        C  0.42234175  0.87507635  0.26513282    -0.07200
C562        C  0.39944087  0.90883582  0.28207774    -0.08000
C563        C  0.37118276  0.90422702  0.31961285    -0.02500
C564        C  0.36971799  0.86588110  0.34383378     0.04300
N565        N  0.34373563  0.86002196  0.38424719     0.66800
H566        H  0.38916489  0.80224061  0.34433397     0.15700
H567        H  0.40189556  0.93824218  0.26357092     0.15400
N568        N  0.44805280  0.88103628  0.22450277     0.74500
O569        O  0.30872406  0.84206599  0.37964158    -0.39000
O570        O  0.35967384  0.86358271  0.42482604    -0.38900
O571        O  0.43126932  0.88187753  0.18415369    -0.39600
O572        O  0.48501940  0.89442411  0.22962902    -0.39700
C573        C  0.30080241  0.67059719  0.23699579    -0.12000
C574        C  0.34102803  0.65406885  0.24487615     0.05100
C575        C  0.34444120  0.61484638  0.26725645    -0.07200
C576        C  0.30822995  0.59348285  0.28152684    -0.08000
C577        C  0.26837707  0.61065927  0.27463108    -0.02500
C578        C  0.26470165  0.64924877  0.25146834     0.04300
N579        N  0.22438406  0.66680601  0.24181717     0.66800
H580        H  0.29724338  0.70038280  0.21963922     0.15700
H581        H  0.31143685  0.56411598  0.29990889     0.15400
N582        N  0.38434282  0.59703034  0.27790078     0.74500
O583        O  0.21218566  0.69818211  0.26451934    -0.39000
O584        O  0.19929710  0.64845308  0.21426755    -0.38900
O585        O  0.40031876  0.60261833  0.31817079    -0.39600
O586        O  0.39866782  0.56884670  0.25168798    -0.39700
C587        C  0.56467260  0.62962169  0.22207971    -0.12000
C588        C  0.54909362  0.65867993  0.25443373     0.05100
C589        C  0.56488613  0.65823106  0.30110057    -0.07200
C590        C  0.59275072  0.62693293  0.31524847    -0.08000
C591        C  0.60649475  0.59666812  0.28336512    -0.02500
C592        C  0.59322657  0.59901287  0.23593406     0.04300
N593        N  0.60572936  0.56862767  0.20215000     0.66800
H594        H  0.55336156  0.62948568  0.18596920     0.15700
H595        H  0.60325935  0.62595691  0.35165264     0.15400
N596        N  0.55252406  0.68868341  0.33484408     0.74500
O597        O  0.58356118  0.53648110  0.19631029    -0.39000
O598        O  0.63322095  0.57787172  0.17198196    -0.38900
O599        O  0.52673372  0.67893924  0.36666822    -0.39600
O600        O  0.57415092  0.72135681  0.33928586    -0.39700
C601        C  0.35227790  0.94860445  0.77310152    -0.12000
C602        C  0.34705152  0.92455900  0.81390391     0.05100
C603        C  0.30890598  0.92718639  0.83879598    -0.07200
C604        C  0.27564229  0.95025241  0.81984999    -0.08000
C605        C  0.27970487  0.97092546  0.77640575    -0.02500
C606        C  0.31926081  0.97155155  0.75419276     0.04300
N607        N  0.32570075  0.99197364  0.71010376     0.66800
H608        H  0.38165811  0.94788468  0.75397093     0.15700
H609        H  0.24576278  0.94993723  0.83798142     0.15400
N610        N  0.30244203  0.90483713  0.88170843     0.74500
O611        O  0.34000743  0.02857099  0.70970709    -0.39000
O612        O  0.32766322  0.97034235  0.67313552    -0.38900
O613        O  0.30606282  0.92364827  0.92050861    -0.39600
O614        O  0.28442329  0.86988889  0.88057382    -0.39700
C615        C  0.41585359  0.69497318  0.77912729    -0.12000
C616        C  0.40633891  0.73380919  0.75938006     0.05100
C617        C  0.37919983  0.73550205  0.71989162    -0.07200
C618        C  0.35957153  0.69915368  0.70378147    -0.08000
C619        C  0.36574362  0.66102054  0.72686446    -0.02500
C620        C  0.39564342  0.65883070  0.76362864     0.04300
N621        N  0.40455977  0.62056866  0.78715120     0.66800
H622        H  0.43703724  0.69286679  0.80901718     0.15700
H623        H  0.33734818  0.70139161  0.67487707     0.15400
N624        N  0.37000862  0.77389138  0.69669377     0.74500
O625        O  0.43659799  0.60013573  0.77554439    -0.39000
O626        O  0.38644011  0.61234148  0.82554504    -0.38900
O627        O  0.38712131  0.78181777  0.65763759    -0.39600
O628        O  0.33804757  0.79421637  0.70883113    -0.39700
C629        C  0.58416194  0.96914112  0.80631853    -0.12000
C630        C  0.60379696  0.96013205  0.76341657     0.05100
C631        C  0.59593797  0.92134665  0.74190764    -0.07200
C632        C  0.56643099  0.89397600  0.76175215    -0.08000
C633        C  0.54452208  0.90444605  0.80301471    -0.02500
C634        C  0.55488770  0.94197721  0.82618792     0.04300
N635        N  0.53512211  0.95381149  0.86922490     0.66800
H636        H  0.59006828  0.99861076  0.82379805     0.15700
H637        H  0.55964571  0.86493975  0.74377944     0.15400
N638        N  0.61789235  0.90908269  0.70040320     0.74500
O639        O  0.55048541  0.94173852  0.90792034    -0.39000
O640        O  0.50877083  0.98298609  0.86899147    -0.38900
O641        O  0.65070093  0.88752110  0.70442018    -0.39600
O642        O  0.60003457  0.91181327  0.66076127    -0.39700
C643        C  0.41129797  0.75472012  0.04450912    -0.12000
C644        C  0.44648381  0.76405982  0.07259401     0.05100
C645        C  0.47923335  0.78795570  0.05261025    -0.07200
C646        C  0.47639580  0.80138694  0.00568401    -0.08000
C647        C  0.44113164  0.79225297  0.97772778    -0.02500
C648        C  0.40819981  0.76868783  0.99776712     0.04300
N649        N  0.37132837  0.75855978  0.97136637     0.66800
H650        H  0.38557984  0.73672422  0.05902312     0.15700
H651        H  0.50194753  0.81968145  0.99127744     0.15400
N652        N  0.51540829  0.79953578  0.07943153     0.74500
O653        O  0.36874385  0.72376455  0.95111727    -0.39000
O654        O  0.33867763  0.78010234  0.97656288    -0.38900
O655        O  0.54913570  0.77975367  0.07395834    -0.39600
O656        O  0.51634398  0.83451722  0.09944366    -0.39700
loop_ 
_geom_bond_atom_site_label_1 
_geom_bond_atom_site_label_2 
_geom_bond_distance 
_geom_bond_site_symmetry_2 
_ccdc_geom_bond_type 
In1           O3   2.247       .  S
In1           O4   2.258       .  S
In1          O12   2.238       .  S
In1           O6   2.260       .  S
In1           O8   2.254       .  S
In1           O9   2.267       .  S
In1          O10   2.251       .  S
In1          O13   2.214       .  S
C2            O8   1.261       .  A
C2           O10   1.257       .  A
C2          C616   1.481       .  S
O3           C11   1.261       .  A
O4           C11   1.260       .  A
C5           O12   1.260       .  A
C5            O6   1.264       .  A
C5          C633   1.487       .  S
C7            O9   1.261       .  A
C7           O13   1.259       .  A
C7          C602   1.478       .  S
C11         C647   1.487       .  S
In14         O16   2.260       .  S
In14         O17   2.253       .  S
In14         O25   2.264       .  S
In14         O19   2.237       .  S
In14         O21   2.242       .  S
In14         O22   2.261       .  S
In14         O23   2.253       .  S
In14         O26   2.251       .  S
C15          O21   1.258       .  A
C15          O23   1.258       .  A
C15         C560   1.482       .  S
O16          C24   1.261       .  A
O17          C24   1.262       .  A
C18          O25   1.261       .  A
C18          O19   1.261       .  A
C18         C588   1.486       .  S
C20          O22   1.261       .  A
C20          O26   1.261       .  A
C20         C574   1.488       .  S
C24         C644   1.490       .  S
In27         O29   2.255       .  S
In27         O30   2.257       .  S
In27         O38   2.236       .  S
In27         O32   2.257       .  S
In27         O34   2.227       .  S
In27         O35   2.238       .  S
In27         O36   2.245       .  S
In27         O39   2.254       .  S
C28          O34   1.257       .  A
C28          O36   1.262       .  A
C28         C518   1.475       .  S
O29          C37   1.259       .  A
O30          C37   1.262       .  A
C31          O38   1.261       .  A
C31          O32   1.258       .  A
C31         C532   1.482       .  S
C33          O35   1.261       .  A
C33          O39   1.260       .  A
C33         C504   1.481       .  S
C37         C546   1.490       .  S
In40         O42   2.264       .  S
In40         O43   2.242       .  S
In40         O51   2.245       .  S
In40         O45   2.248       .  S
In40         O47   2.264       .  S
In40         O48   2.269       .  S
In40         O49   2.215       .  S
In40         O52   2.231       .  S
C41          O47   1.263       .  A
C41          O49   1.259       .  A
C41         C493   1.474       .  S
O42          C50   1.263       .  A
O43          C50   1.263       .  A
C44          O51   1.261       .  A
C44          O45   1.261       .  A
C44         C591   1.479       .  S
C46          O48   1.260       .  A
C46          O52   1.257       .  A
C46         C479   1.483       .  S
C50         C549   1.488       .  S
In53         O55   2.256   1_455  S
In53         O56   2.245       .  S
In53         O64   2.252   1_455  S
In53         O58   2.242   1_455  S
In53         O60   2.269   1_455  S
In53         O61   2.269       .  S
In53         O62   2.214       .  S
In53         O65   2.229       .  S
C54          O60   1.263   1_455  A
C54          O62   1.259       .  A
C54         C448   1.475       .  S
O55          C63   1.261       .  A
O56          C63   1.262   1_455  A
C57          O64   1.260       .  A
C57          O58   1.258       .  A
C57         C535   1.478       .  S
C59          O61   1.263       .  A
C59          O65   1.259       .  A
C59         C434   1.482       .  S
C63         C462   1.486       .  S
In66         O68   2.252   1_655  S
In66         O69   2.251       .  S
In66         O77   2.254       .  S
In66         O71   2.256       .  S
In66         O73   2.244   1_655  S
In66         O74   2.238   1_655  S
In66         O75   2.259       .  S
In66         O78   2.261   1_655  S
C67          O73   1.259       .  A
C67          O75   1.263   1_455  A
C67         C406   1.484       .  S
O68          C76   1.262   1_455  A
O69          C76   1.259       .  A
C70          O77   1.259       .  A
C70          O71   1.259       .  A
C70         C420   1.485       .  S
C72          O74   1.260       .  A
C72          O78   1.260       .  A
C72         C392   1.481       .  S
C76         C465   1.481       .  S
In79         O81   2.237       .  S
In79         O82   2.263       .  S
In79         O90   2.273   1_545  S
In79         O84   2.234       .  S
In79         O86   2.245       .  S
In79         O87   2.241       .  S
In79         O88   2.259       .  S
In79         O91   2.248       .  S
C80          O86   1.263       .  A
C80          O88   1.259       .  A
C80         C367   1.483       .  S
O81          C89   1.259       .  A
O82          C89   1.262       .  A
C83          O90   1.260       .  A
C83          O84   1.259   1_565  A
C83         C630   1.482       .  S
C85          O87   1.261       .  A
C85          O91   1.259       .  A
C85         C350   1.481       .  S
C89         C378   1.484       .  S
In92         O94   2.239       .  S
In92         O95   2.255       .  S
In92        O103   2.233       .  S
In92         O97   2.269       .  S
In92         O99   2.273       .  S
In92        O100   2.263       .  S
In92        O101   2.229       .  S
In92        O104   2.232       .  S
C93          O99   1.263       .  A
C93         O101   1.259       .  A
C93         C339   1.482       .  S
O94         C102   1.261       .  A
O95         C102   1.261       .  A
C96         O103   1.260   1_565  A
C96          O97   1.260   1_565  A
C96         C423   1.486       .  S
C98         O100   1.263       .  A
C98         O104   1.261       .  A
C98         C325   1.485       .  S
C102        C381   1.484       .  S
In105       O107   2.255       .  S
In105       O108   2.244       .  S
In105       O116   2.236       .  S
In105       O110   2.255       .  S
In105       O112   2.248       .  S
In105       O113   2.246       .  S
In105       O114   2.234       .  S
In105       O117   2.258       .  S
C106        O112   1.262       .  A
C106        O114   1.259       .  A
C106        C507   1.474       .  S
O107        C115   1.262       .  A
O108        C115   1.259       .  A
C109        O116   1.259   1_455  A
C109        O110   1.259   1_455  A
C109        C294   1.481       .  S
C111        O113   1.258       .  A
C111        O117   1.261       .  A
C111        C308   1.480       .  S
C115        C364   1.485       .  S
In118       O120   2.233       .  S
In118       O121   2.251       .  S
In118       O129   2.244       .  S
In118       O123   2.244   1_655  S
In118       O125   2.250       .  S
In118       O126   2.222       .  S
In118       O127   2.245       .  S
In118       O130   2.235       .  S
C119        O125   1.261       .  A
C119        O127   1.259       .  A
C119        C322   1.479       .  S
O120        C128   1.257       .  A
O121        C128   1.260       .  A
C122        O129   1.257   1_455  A
C122        O123   1.260       .  A
C122        C283   1.473       .  S
C124        O126   1.262       .  A
C124        O130   1.264       .  A
C124        C311   1.473       .  S
C128        C490   1.476       .  S
In131       O133   2.245       .  S
In131       O134   2.247       .  S
In131       O142   2.252       .  S
In131       O136   2.237       .  S
In131       O138   2.260       .  S
In131       O139   2.235       .  S
In131       O140   2.230       .  S
In131       O143   2.245       .  S
C132        O138   1.262       .  A
C132        O140   1.258       .  A
C132        C577   1.476       .  S
O133        C141   1.260       .  A
O134        C141   1.261       .  A
C135        O142   1.260       .  A
C135        O136   1.259       .  A
C135        C280   1.477       .  S
C137        O139   1.262       .  A
C137        O143   1.260       .  A
C137        C266   1.481       .  S
C141        C409   1.477       .  S
In144       O146   2.249       .  S
In144       O147   2.256       .  S
In144       O155   2.231       .  S
In144       O149   2.243       .  S
In144       O151   2.272       .  S
In144       O152   2.236       .  S
In144       O153   2.216       .  S
In144       O156   2.255       .  S
C145        O151   1.263       .  A
C145        O153   1.259       .  A
C145        C437   1.477       .  S
O146        C154   1.257       .  A
O147        C154   1.259       .  A
C148        O155   1.261       .  A
C148        O149   1.262       .  A
C148        C252   1.479       .  S
C150        O152   1.261       .  A
C150        O156   1.262       .  A
C150        C269   1.480       .  S
C154        C619   1.482       .  S
In157       O159   2.234       .  S
In157       O160   2.265       .  S
In157       O168   2.255   1_565  S
In157       O162   2.259   1_565  S
In157       O164   2.246   1_565  S
In157       O165   2.250   1_565  S
In157       O166   2.238       .  S
In157       O169   2.252   1_565  S
C158        O164   1.263   1_565  A
C158        O166   1.259       .  A
C158        C395   1.481       .  S
O159        C167   1.259       .  A
O160        C167   1.261       .  A
C161        O168   1.261       .  A
C161        O162   1.259       .  A
C161        C224   1.489       .  S
C163        O165   1.262       .  A
C163        O169   1.258       .  A
C163        C238   1.482       .  S
C167        C563   1.482       .  S
In170       O172   2.249   1_545  S
In170       O173   2.248   1_545  S
In170       O181   2.255       .  S
In170       O175   2.232       .  S
In170       O177   2.248   1_545  S
In170       O178   2.247   1_545  S
In170       O179   2.240       .  S
In170       O182   2.245       .  S
C171        O177   1.260       .  A
C171        O179   1.258   1_565  A
C171        C605   1.480       .  S
O172        C180   1.261       .  A
O173        C180   1.259       .  A
C174        O181   1.260       .  A
C174        O175   1.259       .  A
C174        C297   1.478       .  S
C176        O178   1.263   1_545  A
C176        O182   1.260       .  A
C176        C241   1.481       .  S
C180        C451   1.484       .  S
In183       O185   2.263       .  S
In183       O186   2.216       .  S
In183       O194   2.232       .  S
In183       O188   2.245       .  S
In183       O190   2.240       .  S
In183       O191   2.258       .  S
In183       O192   2.244       .  S
In183       O195   2.261       .  S
C184        O190   1.261       .  A
C184        O192   1.257       .  A
C184        C353   1.479       .  S
O185        C193   1.260       .  A
O186        C193   1.259       .  A
C187        O194   1.263       .  A
C187        O188   1.261       .  A
C187        C255   1.478       .  S
C189        O191   1.261       .  A
C189        O195   1.259       .  A
C189        C210   1.486       .  S
C193        C521   1.477       .  S
In196       O198   2.247       .  S
In196       O199   2.265       .  S
In196       O207   2.249       .  S
In196       O201   2.270       .  S
In196       O203   2.243       .  S
In196       O204   2.246       .  S
In196       O205   2.250       .  S
In196       O208   2.264       .  S
C197        O203   1.259       .  A
C197        O205   1.259       .  A
C197        C476   1.482       .  S
O198        C206   1.258       .  A
O199        C206   1.261       .  A
C200        O207   1.261       .  A
C200        O201   1.260       .  A
C200        C227   1.489       .  S
C202        O204   1.262       .  A
C202        O208   1.262       .  A
C202        C213   1.488       .  S
C206        C336   1.488       .  S
C209        C210   1.404       .  A
C209        C214   1.404   1_556  A
C209        H216   1.085       .  S
C210        C211   1.413       .  A
C211        C212   1.401   1_556  A
C211        N218   1.429       .  S
C212        C213   1.405       .  A
C212        H217   1.085       .  S
C213        C214   1.414       .  A
C214        N215   1.428       .  S
N215        O219   1.262       .  A
N215        O220   1.262       .  A
N218        O222   1.262       .  A
N218        O221   1.262       .  A
C223        C224   1.405       .  A
C223        C228   1.403       .  A
C223        H230   1.085       .  S
C224        C225   1.414       .  A
C225        C226   1.402       .  A
C225        N232   1.428       .  S
C226        C227   1.404       .  A
C226        H231   1.085       .  S
C227        C228   1.414       .  A
C228        N229   1.428       .  S
N229        O233   1.262       .  A
N229        O234   1.262       .  A
N232        O236   1.262       .  A
N232        O235   1.262       .  A
C237        C238   1.401       .  A
C237        C242   1.399       .  A
C237        H244   1.087       .  S
C238        C239   1.414   1_545  A
C239        C240   1.401       .  A
C239        N246   1.429       .  S
C240        C241   1.403   1_565  A
C240        H245   1.087       .  S
C241        C242   1.413       .  A
C242        N243   1.428       .  S
N243        O247   1.261       .  A
N243        O248   1.262       .  A
N246        O250   1.262   1_565  A
N246        O249   1.262       .  A
C251        C252   1.404       .  A
C251        C256   1.399       .  A
C251        H258   1.083       .  S
C252        C253   1.412       .  A
C253        C254   1.398       .  A
C253        N260   1.428       .  S
C254        C255   1.403       .  A
C254        H259   1.083       .  S
C255        C256   1.412       .  A
C256        N257   1.429       .  S
N257        O261   1.262       .  A
N257        O262   1.262       .  A
N260        O264   1.262       .  A
N260        O263   1.262       .  A
C265        C266   1.403       .  A
C265        C270   1.399       .  A
C265        H272   1.087       .  S
C266        C267   1.413       .  A
C267        C268   1.400       .  A
C267        N274   1.429       .  S
C268        C269   1.403       .  A
C268        H273   1.087       .  S
C269        C270   1.412       .  A
C270        N271   1.428       .  S
N271        O275   1.262       .  A
N271        O276   1.262       .  A
N274        O278   1.262       .  A
N274        O277   1.262       .  A
C279        C280   1.404       .  A
C279        C284   1.399       .  A
C279        H286   1.084       .  S
C280        C281   1.411       .  A
C281        C282   1.399       .  A
C281        N288   1.428       .  S
C282        C283   1.402       .  A
C282        H287   1.084       .  S
C283        C284   1.410       .  A
C284        N285   1.429       .  S
N285        O289   1.262       .  A
N285        O290   1.262       .  A
N288        O292   1.262       .  A
N288        O291   1.262       .  A
C293        C294   1.404       .  A
C293        C298   1.398       .  A
C293        H300   1.085       .  S
C294        C295   1.413       .  A
C295        C296   1.398       .  A
C295        N302   1.429       .  S
C296        C297   1.403       .  A
C296        H301   1.085       .  S
C297        C298   1.412       .  A
C298        N299   1.429       .  S
N299        O303   1.262       .  A
N299        O304   1.262       .  A
N302        O306   1.262   1_455  A
N302        O305   1.262       .  A
C307        C308   1.406       .  A
C307        C312   1.401   1_556  A
C307        H314   1.084       .  S
C308        C309   1.411       .  A
C309        C310   1.398   1_556  A
C309        N316   1.428       .  S
C310        C311   1.401       .  A
C310        H315   1.084       .  S
C311        C312   1.410       .  A
C312        N313   1.431       .  S
N313        O317   1.262       .  A
N313        O318   1.262       .  A
N316        O320   1.262       .  A
N316        O319   1.262   1_655  A
C321        C322   1.404       .  A
C321        C326   1.402       .  A
C321        H328   1.084       .  S
C322        C323   1.410       .  A
C323        C324   1.398       .  A
C323        N330   1.429       .  S
C324        C325   1.405       .  A
C324        H329   1.084       .  S
C325        C326   1.414       .  A
C326        N327   1.429       .  S
N327        O331   1.262       .  A
N327        O332   1.262       .  A
N330        O334   1.262       .  A
N330        O333   1.262       .  A
C335        C336   1.408       .  A
C335        C340   1.406       .  A
C335        H342   1.083       .  S
C336        C337   1.414       .  A
C337        C338   1.397       .  A
C337        N344   1.429       .  S
C338        C339   1.402       .  A
C338        H343   1.084       .  S
C339        C340   1.411       .  A
C340        N341   1.429       .  S
N341        O345   1.262       .  A
N341        O346   1.262       .  A
N344        O348   1.262       .  A
N344        O347   1.262       .  A
C349        C350   1.404       .  A
C349        C354   1.399       .  A
C349        H356   1.084       .  S
C350        C351   1.413       .  A
C351        C352   1.398       .  A
C351        N358   1.429       .  S
C352        C353   1.403       .  A
C352        H357   1.084       .  S
C353        C354   1.414       .  A
C354        N355   1.430       .  S
N355        O359   1.262       .  A
N355        O360   1.262       .  A
N358        O362   1.262       .  A
N358        O361   1.262       .  A
C363        C364   1.405       .  A
C363        C368   1.403       .  A
C363        H370   1.084       .  S
C364        C365   1.414       .  A
C365        C366   1.399       .  A
C365        N372   1.429       .  S
C366        C367   1.403       .  A
C366        H371   1.084       .  S
C367        C368   1.414       .  A
C368        N369   1.429       .  S
N369        O373   1.262       .  A
N369        O374   1.262       .  A
N372        O376   1.262       .  A
N372        O375   1.262       .  A
C377        C378   1.405       .  A
C377        C382   1.401       .  A
C377        H384   1.084       .  S
C378        C379   1.411       .  A
C379        C380   1.400       .  A
C379        N386   1.428       .  S
C380        C381   1.405       .  A
C380        H385   1.084       .  S
C381        C382   1.413       .  A
C382        N383   1.429       .  S
N383        O387   1.262       .  A
N383        O388   1.262       .  A
N386        O390   1.262   1_545  A
N386        O389   1.262       .  A
C391        C392   1.403       .  A
C391        C396   1.397       .  A
C391        H398   1.084       .  S
C392        C393   1.412       .  A
C393        C394   1.401       .  A
C393        N400   1.429       .  S
C394        C395   1.405       .  A
C394        H399   1.084       .  S
C395        C396   1.413       .  A
C396        N397   1.429       .  S
N397        O401   1.262       .  A
N397        O402   1.262       .  A
N400        O404   1.262       .  A
N400        O403   1.262       .  A
C405        C406   1.407       .  A
C405        C410   1.403       .  A
C405        H412   1.086   1_455  S
C406        C407   1.414       .  A
C407        C408   1.399       .  A
C407        N414   1.429       .  S
C408        C409   1.400       .  A
C408        H413   1.087       .  S
C409        C410   1.410       .  A
C410        N411   1.430       .  S
N411        O415   1.262       .  A
N411        O416   1.262       .  A
N414        O418   1.262       .  A
N414        O417   1.262       .  A
C419        C420   1.406       .  A
C419        C424   1.404       .  A
C419        H426   1.084       .  S
C420        C421   1.412       .  A
C421        C422   1.397       .  A
C421        N428   1.428       .  S
C422        C423   1.404       .  A
C422        H427   1.084       .  S
C423        C424   1.414       .  A
C424        N425   1.429       .  S
N425        O429   1.262       .  A
N425        O430   1.262       .  A
N428        O432   1.262       .  A
N428        O431   1.262       .  A
C433        C434   1.407       .  A
C433        C438   1.408       .  A
C433        H440   1.081       .  S
C434        C435   1.412       .  A
C435        C436   1.393       .  A
C435        N442   1.429       .  S
C436        C437   1.400       .  A
C436        H441   1.082       .  S
C437        C438   1.411       .  A
C438        N439   1.429       .  S
N439        O443   1.262       .  A
N439        O444   1.262       .  A
N442        O446   1.262       .  A
N442        O445   1.262       .  A
C447        C448   1.401       .  A
C447        C452   1.395       .  A
C447        H454   1.084       .  S
C448        C449   1.409       .  A
C449        C450   1.404       .  A
C449        N456   1.429   1_455  S
C450        C451   1.409       .  A
C450        H455   1.084       .  S
C451        C452   1.412       .  A
C452        N453   1.428       .  S
N453        O457   1.262       .  A
N453        O458   1.262       .  A
N456        O460   1.262       .  A
N456        O459   1.262       .  A
C461        C462   1.405   1_454  A
C461        C466   1.401       .  A
C461        H468   1.085       .  S
C462        C463   1.415       .  A
C463        C464   1.402   1_556  A
C463        N470   1.428       .  S
C464        C465   1.402       .  A
C464        H469   1.086       .  S
C465        C466   1.412   1_655  A
C466        N467   1.429       .  S
N467        O471   1.262   1_455  A
N467        O472   1.262       .  A
N470        O474   1.262       .  A
N470        O473   1.262       .  A
C475        C476   1.405       .  A
C475        C480   1.401       .  A
C475        H482   1.084       .  S
C476        C477   1.412       .  A
C477        C478   1.398       .  A
C477        N484   1.429       .  S
C478        C479   1.405       .  A
C478        H483   1.084       .  S
C479        C480   1.412       .  A
C480        N481   1.428       .  S
N481        O485   1.262       .  A
N481        O486   1.262       .  A
N484        O488   1.262       .  A
N484        O487   1.262       .  A
C489        C490   1.405       .  A
C489        C494   1.402       .  A
C489        H496   1.084       .  S
C490        C491   1.411       .  A
C491        C492   1.393       .  A
C491        N498   1.429       .  S
C492        C493   1.401       .  A
C492        H497   1.085       .  S
C493        C494   1.411       .  A
C494        N495   1.429       .  S
N495        O499   1.262       .  A
N495        O500   1.262       .  A
N498        O502   1.262       .  A
N498        O501   1.262       .  A
C503        C504   1.404       .  A
C503        C508   1.397       .  A
C503        H510   1.085       .  S
C504        C505   1.414       .  A
C505        C506   1.400       .  A
C505        N512   1.429       .  S
C506        C507   1.402       .  A
C506        H511   1.085       .  S
C507        C508   1.409       .  A
C508        N509   1.429       .  S
N509        O513   1.262       .  A
N509        O514   1.262       .  A
N512        O516   1.262       .  A
N512        O515   1.262       .  A
C517        C518   1.404       .  A
C517        C522   1.400       .  A
C517        H524   1.083       .  S
C518        C519   1.412       .  A
C519        C520   1.394       .  A
C519        N526   1.430       .  S
C520        C521   1.403       .  A
C520        H525   1.084       .  S
C521        C522   1.413       .  A
C522        N523   1.429       .  S
N523        O527   1.262       .  A
N523        O528   1.262       .  A
N526        O530   1.262       .  A
N526        O529   1.262       .  A
C531        C532   1.403       .  A
C531        C536   1.396       .  A
C531        H538   1.083       .  S
C532        C533   1.415       .  A
C533        C534   1.402       .  A
C533        N540   1.429       .  S
C534        C535   1.403       .  A
C534        H539   1.083       .  S
C535        C536   1.411       .  A
C536        N537   1.429       .  S
N537        O541   1.262       .  A
N537        O542   1.262       .  A
N540        O544   1.262       .  A
N540        O543   1.262       .  A
C545        C546   1.405       .  A
C545        C550   1.404       .  A
C545        H552   1.087       .  S
C546        C547   1.415       .  A
C547        C548   1.401       .  A
C547        N554   1.429       .  S
C548        C549   1.403       .  A
C548        H553   1.087       .  S
C549        C550   1.414       .  A
C550        N551   1.429       .  S
N551        O555   1.262       .  A
N551        O556   1.262       .  A
N554        O558   1.262       .  A
N554        O557   1.262       .  A
C559        C560   1.405       .  A
C559        C564   1.400       .  A
C559        H566   1.084       .  S
C560        C561   1.412       .  A
C561        C562   1.398       .  A
C561        N568   1.429       .  S
C562        C563   1.405       .  A
C562        H567   1.084       .  S
C563        C564   1.412       .  A
C564        N565   1.429       .  S
N565        O569   1.262       .  A
N565        O570   1.262       .  A
N568        O572   1.262       .  A
N568        O571   1.262       .  A
C573        C574   1.407       .  A
C573        C578   1.401       .  A
C573        H580   1.083       .  S
C574        C575   1.416       .  A
C575        C576   1.402       .  A
C575        N582   1.428       .  S
C576        C577   1.400       .  A
C576        H581   1.084       .  S
C577        C578   1.409       .  A
C578        N579   1.431       .  S
N579        O583   1.262       .  A
N579        O584   1.262       .  A
N582        O586   1.262       .  A
N582        O585   1.262       .  A
C587        C588   1.405       .  A
C587        C592   1.399       .  A
C587        H594   1.085       .  S
C588        C589   1.415       .  A
C589        C590   1.403       .  A
C589        N596   1.428       .  S
C590        C591   1.403       .  A
C590        H595   1.085       .  S
C591        C592   1.411       .  A
C592        N593   1.429       .  S
N593        O597   1.262       .  A
N593        O598   1.262       .  A
N596        O600   1.262       .  A
N596        O599   1.262       .  A
C601        C602   1.401       .  A
C601        C606   1.393       .  A
C601        H608   1.085       .  S
C602        C603   1.411       .  A
C603        C604   1.402       .  A
C603        N610   1.428       .  S
C604        C605   1.406       .  A
C604        H609   1.084       .  S
C605        C606   1.412       .  A
C606        N607   1.427       .  S
N607        O611   1.262   1_565  A
N607        O612   1.261       .  A
N610        O614   1.262       .  A
N610        O613   1.262       .  A
C615        C616   1.403       .  A
C615        C620   1.399       .  A
C615        H622   1.084       .  S
C616        C617   1.414       .  A
C617        C618   1.401       .  A
C617        N624   1.430       .  S
C618        C619   1.404       .  A
C618        H623   1.084       .  S
C619        C620   1.412       .  A
C620        N621   1.429       .  S
N621        O625   1.262       .  A
N621        O626   1.262       .  A
N624        O628   1.262       .  A
N624        O627   1.262       .  A
C629        C630   1.402       .  A
C629        C634   1.396       .  A
C629        H636   1.087       .  S
C630        C631   1.412       .  A
C631        C632   1.405       .  A
C631        N638   1.429       .  S
C632        C633   1.407       .  A
C632        H637   1.086       .  S
C633        C634   1.414       .  A
C634        N635   1.429       .  S
N635        O639   1.262       .  A
N635        O640   1.262       .  A
N638        O642   1.262       .  A
N638        O641   1.262       .  A
C643        C644   1.406       .  A
C643        C648   1.403   1_554  A
C643        H650   1.084       .  S
C644        C645   1.414       .  A
C645        C646   1.402       .  A
C645        N652   1.428       .  S
C646        C647   1.404   1_554  A
C646        H651   1.084   1_554  S
C647        C648   1.414       .  A
C648        N649   1.429       .  S
N649        O653   1.262       .  A
N649        O654   1.262       .  A
N652        O656   1.262       .  A
N652        O655   1.262       .  A
