geometry optimzed in LAMMPS
_audit_creation_date              2020-11-30 
_audit_creation_method            'lammps2cif' 
_symmetry_space_group_name_H-M    'P1' 
_symmetry_Int_Tables_number       1 
_symmetry_cell_setting            triclinic 
loop_ 
_symmetry_equiv_pos_as_xyz 
  x,y,z 
_cell_length_a                    34.99211511243087 
_cell_length_b                    35.729418838553684 
_cell_length_c                    35.50166863727352 
_cell_angle_alpha                 91.07346341865879 
_cell_angle_beta                  90.2040022921394 
_cell_angle_gamma                 90.80988301805897 
loop_ 
_atom_site_label 
_atom_site_type_symbol 
_atom_site_fract_x 
_atom_site_fract_y 
_atom_site_fract_z 
_atom_site_charge 
N1          N  0.04535947  0.07434152  0.04012827    -0.04230
N2          N  0.05330396  0.09986087  0.06644907    -0.56350
N3          N  0.06922168  0.04883860  0.45384840    -0.03910
N4          N  0.09469375  0.05640391  0.42811323    -0.58470
N5          N  0.04329303  0.07508138  0.45505338    -0.03500
N6          N  0.05100496  0.10139264  0.43026642    -0.56320
N7          N  0.07174811  0.04855012  0.03890264    -0.03180
N8          N  0.09813333  0.05576092  0.06437964    -0.58830
C9          C  0.08632784  0.08769535  0.08146748     0.97950
C10         C  0.08338006  0.08918627  0.41356569     0.97730
N11         N  0.04575494  0.43406412  0.45059050    -0.04410
N12         N  0.05523999  0.40635668  0.42754245    -0.56920
N13         N  0.07468920  0.46001437  0.03794855    -0.02530
N14         N  0.10072627  0.45032126  0.06326299    -0.58180
N15         N  0.04810741  0.43402467  0.03533915    -0.04440
N16         N  0.05601220  0.40664898  0.05755591    -0.57190
N17         N  0.07248287  0.46020178  0.45115000    -0.02170
N18         N  0.10044782  0.45063084  0.42821025    -0.58260
Mn19       Mn  0.07311013  0.50461040  0.99551042     1.18440
C20         C  0.08994096  0.41651531  0.41390693     1.00030
C21         C  0.08826365  0.41628819  0.07577805     1.00700
N22         N  0.45422885  0.07166784  0.45671543    -0.04460
N23         N  0.44702605  0.09816521  0.43281553    -0.60770
N24         N  0.42976600  0.04539063  0.04373448    -0.03260
N25         N  0.40289863  0.05366952  0.06830108    -0.61440
N26         N  0.45573192  0.07224535  0.04322121    -0.03970
N27         N  0.44680421  0.09909141  0.06754075    -0.61040
N28         N  0.42527552  0.04804760  0.45852679    -0.02860
N29         N  0.39676637  0.05992415  0.43730329    -0.61730
Mn30       Mn  0.99958589  0.07417018  0.99877203     1.10660
C31         C  0.41057108  0.09193540  0.42166319     1.01250
C32         C  0.41304379  0.08778045  0.08265513     1.01330
N33         N  0.45881842  0.43105871  0.03910528    -0.03980
N34         N  0.45186543  0.40427815  0.06355530    -0.59350
N35         N  0.42884038  0.45750443  0.45458344    -0.03290
N36         N  0.40196558  0.44776297  0.42998851    -0.56080
N37         N  0.45622543  0.43271061  0.45357371    -0.04610
N38         N  0.44849137  0.40588680  0.42875679    -0.58920
N39         N  0.43241759  0.45676864  0.04122211    -0.03590
N40         N  0.40759412  0.44816391  0.06752236    -0.56100
Mn41       Mn  0.50213039  0.43251568  0.49449252     1.20190
Mn42       Mn  0.42779916  0.00170411  0.49944480     1.10090
Cl43       Cl  0.00056305  0.00330412  0.99692880    -0.84070
C44         C  0.41924725  0.41496218  0.08103676     0.98260
C45         C  0.41419223  0.41504007  0.41435197     0.98060
C46         C  0.39174290  0.39064474  0.38524584    -0.00600
C47         C  0.39567027  0.39146803  0.10935846    -0.00600
C48         C  0.27455368  0.37638917  0.49816035     0.02460
C49         C  0.23563314  0.37435678  0.49858968     0.02450
C50         C  0.38961356  0.11680569  0.39310910    -0.00600
C51         C  0.38858069  0.00247475  0.26896240     0.02460
C52         C  0.39061874  0.00430421  0.23052611     0.02450
C53         C  0.38762356  0.11170078  0.10970794    -0.00600
C54         C  0.22773076  0.12152645  0.49927303     0.02460
C55         C  0.26682543  0.12222462  0.49952759     0.02450
C56         C  0.11553830  0.39114381  0.38858760    -0.00600
C57         C  0.00284486  0.23366252  0.36477599     0.02460
C58         C  0.00365116  0.27178554  0.36915311     0.02450
C59         C  0.10703391  0.10914400  0.38396412    -0.00600
C60         C  0.12508240  0.49439958  0.26636347     0.02460
C61         C  0.12112702  0.49323261  0.22846251     0.02450
C62         C  0.10884376  0.10647032  0.11306616    -0.00600
C63         C  0.10926941  0.38958310  0.10326321    -0.00600
C64         C  0.00189551  0.26696347  0.12838092     0.02460
C65         C  0.99983374  0.22868086  0.13018124     0.02450
C66         C  0.04470546  0.30248979  0.08720225     0.25490
C67         C  0.03799401  0.28838027  0.12288887    -0.22620
C68         C  0.06175869  0.30215955  0.15239217     0.20390
C69         C  0.08867642  0.33125204  0.14482831     0.25430
C70         C  0.08506070  0.35240870  0.11106072    -0.22570
C71         C  0.05493747  0.33968322  0.08697126     0.20330
F72         F  0.02202984  0.35948562  0.08845258    -0.12580
F73         F  0.02699966  0.28751132  0.05637162    -0.14890
F74         F  0.11540515  0.34019920  0.17135367    -0.14890
F75         F  0.05944573  0.28739479  0.18723994    -0.12520
C76         C  0.02518133  0.16635961  0.15069293     0.25490
C77         C  0.03354330  0.20190051  0.13588653    -0.22620
C78         C  0.07285055  0.20750422  0.12609370     0.20390
C79         C  0.09924511  0.17825157  0.12919809     0.25430
C80         C  0.08603811  0.14080881  0.12929395    -0.22570
C81         C  0.04878260  0.13616454  0.14406631     0.20330
F82         F  0.03353311  0.10266347  0.15249101    -0.12520
F83         F  0.99368682  0.15947138  0.17143717    -0.14890
F84         F  0.13715409  0.18680102  0.12866297    -0.14890
F85         F  0.08696474  0.23883883  0.11055660    -0.12520
C86         C  0.08289597  0.44326436  0.19360507     0.25490
C87         C  0.11846247  0.45721440  0.20658040    -0.22620
C88         C  0.15162029  0.44173776  0.19142035     0.20390
C89         C  0.14918285  0.41640571  0.16091642     0.25430
C90         C  0.11379426  0.41042443  0.14161838    -0.22570
C91         C  0.08049898  0.42228709  0.16030382     0.20330
F92         F  0.04528595  0.41359878  0.14622403    -0.12520
F93         F  0.05000741  0.45095405  0.21189243    -0.14890
F94         F  0.18144509  0.39825440  0.15078311    -0.14890
F95         F  0.18642276  0.45201315  0.20546106    -0.12520
C96         C  0.14770792  0.05206763  0.19834212     0.25490
C97         C  0.11687289  0.02760702  0.20591015    -0.22620
C98         C  0.08350639  0.03114052  0.18498184     0.20390
C99         C  0.08397295  0.05054965  0.15194713     0.25430
C100        C  0.11282368  0.07811384  0.14534582    -0.22570
C101        C  0.14387345  0.07986182  0.17105166     0.20330
F102        F  0.17214350  0.10593720  0.16749456    -0.12520
F103        F  0.18194704  0.04792850  0.21548014    -0.14890
F104        F  0.05425701  0.04311566  0.12806360    -0.14890
F105        F  0.05013870  0.01519270  0.19568206    -0.12520
C106        C  0.14540282  0.08157576  0.32737958     0.25490
C107        C  0.11201175  0.08150567  0.34992114    -0.22620
C108        C  0.08285040  0.05497508  0.33967123     0.20390
C109        C  0.08496868  0.03440644  0.30654581     0.25430
C110        C  0.12002817  0.02955517  0.28885419    -0.22570
C111        C  0.15078893  0.05313984  0.29994910     0.20330
F112        F  0.18629014  0.04762332  0.28601600    -0.12520
F113        F  0.17421624  0.10664179  0.33416756    -0.14890
F114        F  0.05282190  0.01703192  0.29355291    -0.14890
F115        F  0.05183676  0.04762860  0.36139611    -0.12520
C116        C  0.04860013  0.14077559  0.35186634     0.25490
C117        C  0.08539699  0.14433239  0.36866823    -0.22620
C118        C  0.10051980  0.18132223  0.36858355     0.20390
C119        C  0.07575271  0.21227044  0.36863067     0.25430
C120        C  0.03668275  0.20742057  0.35782648    -0.22570
C121        C  0.02753742  0.17191223  0.34252880     0.20330
F122        F  0.99682633  0.16660478  0.31967954    -0.12520
F123        F  0.03144759  0.10771470  0.34388147    -0.14890
F124        F  0.09141382  0.24545615  0.37926855    -0.14890
F125        F  0.13878199  0.18806983  0.36920606    -0.12520
C126        C  0.15624620  0.42168446  0.33485006     0.25490
C127        C  0.12044924  0.41201128  0.35118541    -0.22620
C128        C  0.08707674  0.42241355  0.33168878     0.20390
C129        C  0.08929019  0.44395661  0.29975333     0.25430
C130        C  0.12435219  0.45966156  0.28866631    -0.22570
C131        C  0.15796462  0.44705198  0.30529407     0.20330
F132        F  0.19244426  0.46012790  0.29355231    -0.12520
F133        F  0.18967528  0.40751256  0.34720727    -0.14890
F134        F  0.05643624  0.45087196  0.28122951    -0.14890
F135        F  0.05181436  0.41162022  0.34364127    -0.12520
C136        C  0.07966043  0.33345998  0.41369137     0.25490
C137        C  0.09389373  0.35296333  0.38214675    -0.22620
C138        C  0.08566232  0.33693216  0.34594185     0.20390
C139        C  0.05732659  0.30911282  0.34155354     0.25430
C140        C  0.03880580  0.29476483  0.37311580    -0.22570
C141        C  0.05170923  0.30557762  0.40922441     0.20330
F142        F  0.03715056  0.28919615  0.44031113    -0.12520
F143        F  0.09099177  0.34322451  0.44924777    -0.14890
F144        F  0.04754646  0.29656727  0.30646515    -0.14890
F145        F  0.10453483  0.34786297  0.31460937    -0.12520
C146        C  0.17423662  0.08564077  0.08521717     0.25490
C147        C  0.14714615  0.11474047  0.09177207    -0.22620
C148        C  0.15000143  0.14539329  0.06701125     0.20390
C149        C  0.18198096  0.15082265  0.04468626     0.25430
C150        C  0.20530888  0.12071058  0.03521174    -0.22570
C151        C  0.20106895  0.08786129  0.05590906     0.20330
F152        F  0.22049225  0.05669505  0.04593719    -0.12520
F153        F  0.17099556  0.05217398  0.10246126    -0.14890
F154        F  0.18806430  0.18512158  0.03032869    -0.14890
F155        F  0.12003174  0.16789924  0.06000481    -0.12520
C156        C  0.18491075  0.15245899  0.45199347     0.25490
C157        C  0.20440233  0.12070435  0.46363793    -0.22620
C158        C  0.19399165  0.08638145  0.44646563     0.20390
C159        C  0.16919351  0.08503547  0.41529892     0.25430
C160        C  0.14529060  0.11606097  0.40691098    -0.22570
C161        C  0.15157710  0.14827944  0.43038810     0.20330
F162        F  0.12379423  0.17352582  0.43725974    -0.12520
F163        F  0.19572838  0.18720117  0.46397264    -0.14890
F164        F  0.16419265  0.05118261  0.39781380    -0.14890
F165        F  0.20643992  0.05371993  0.46083419    -0.12520
C166        C  0.41141708  0.17045414  0.14989153     0.25490
C167        C  0.40681292  0.15147720  0.11461525    -0.22620
C168        C  0.42183247  0.17020482  0.08289093     0.20390
C169        C  0.45173708  0.19628762  0.08757420     0.25430
C170        C  0.46135408  0.21019100  0.12361720    -0.22570
C171        C  0.43707512  0.20108050  0.15371064     0.20330
F172        F  0.44308291  0.21706244  0.18825185    -0.12520
F173        F  0.39211703  0.15917884  0.18083752    -0.14890
F174        F  0.47308781  0.20569286  0.05725263    -0.14890
F175        F  0.41116136  0.15977092  0.04732148    -0.12520
C176        C  0.32826635  0.08179117  0.07619965     0.25490
C177        C  0.34725306  0.11443833  0.09067143    -0.22620
C178        C  0.32878033  0.14889915  0.08390047     0.20390
C179        C  0.29885575  0.15067605  0.05753313     0.25430
C180        C  0.28867975  0.11899991  0.03554852    -0.22570
C181        C  0.30249086  0.08419173  0.04623251     0.20330
F182        F  0.29199919  0.05251404  0.02692935    -0.12520
F183        F  0.33539152  0.04738952  0.09000135    -0.14890
F184        F  0.28121596  0.18375400  0.05216179    -0.14890
F185        F  0.33887974  0.18092481  0.10272222    -0.12520
C186        C  0.42352237  0.05382069  0.19287974     0.25490
C187        C  0.38976008  0.03995325  0.20908077    -0.22620
C188        C  0.35479014  0.05465002  0.19717700     0.20390
C189        C  0.35332747  0.07986917  0.16717888     0.25430
C190        C  0.38708313  0.09034340  0.14764237    -0.22570
C191        C  0.42226909  0.07913259  0.16341147     0.20330
F192        F  0.45592395  0.09082065  0.14853332    -0.12520
F193        F  0.45809501  0.04138219  0.20409199    -0.14890
F194        F  0.31872791  0.09341354  0.15746537    -0.14890
F195        F  0.32169416  0.04294299  0.21324509    -0.12520
C196        C  0.41117586  0.17523137  0.35398432     0.25490
C197        C  0.41378307  0.15393922  0.38721663    -0.22620
C198        C  0.43630247  0.17073851  0.41693994     0.20390
C199        C  0.46335312  0.19843325  0.40982665     0.25430
C200        C  0.46618609  0.21371157  0.37417494    -0.22570
C201        C  0.43754710  0.20470357  0.34732628     0.20330
F202        F  0.43781797  0.22142537  0.31333141    -0.12520
F203        F  0.38495873  0.16601624  0.32699970    -0.14890
F204        F  0.48791952  0.20949716  0.43772448    -0.14890
F205        F  0.43102505  0.16197516  0.45372002    -0.12520
C206        C  0.31705472  0.15786687  0.46403130     0.25490
C207        C  0.29078383  0.12783425  0.46493717    -0.22620
C208        C  0.29005246  0.10340403  0.43340416     0.20390
C209        C  0.31536163  0.10896896  0.40359791     0.25430
C210        C  0.34966841  0.12938768  0.40963997    -0.22570
C211        C  0.34636663  0.15845666  0.43739418     0.20330
F212        F  0.36731741  0.19049269  0.43610534    -0.12520
F213        F  0.31457460  0.18709039  0.48867836    -0.14890
F214        F  0.30419940  0.09722653  0.36865949    -0.14890
F215        F  0.26757962  0.07251966  0.43183359    -0.12520
C216        C  0.35944932  0.03448259  0.32463301     0.25490
C217        C  0.38580927  0.03608674  0.29510605    -0.22620
C218        C  0.41471103  0.06383401  0.29782712     0.20390
C219        C  0.41551073  0.09023145  0.32800722     0.25430
C220        C  0.38770357  0.08959981  0.35732102    -0.22570
C221        C  0.36380684  0.05699405  0.35670908     0.20330
F222        F  0.34535322  0.04462894  0.38771646    -0.12520
F223        F  0.33069943  0.00869186  0.32437521    -0.14890
F224        F  0.44702123  0.11243035  0.33093901    -0.14890
F225        F  0.44455714  0.06329368  0.27367126    -0.12520
C226        C  0.20437183  0.40907002  0.05159771     0.25490
C227        C  0.21218382  0.37485271  0.03370660    -0.22620
C228        C  0.18997093  0.34336117  0.04322626     0.20390
C229        C  0.15856402  0.34660636  0.06767438     0.25430
C230        C  0.14833028  0.38194450  0.08339951    -0.22570
C231        C  0.17365037  0.41255913  0.07616895     0.20330
F232        F  0.16818407  0.44697284  0.09197036    -0.12520
F233        F  0.22427833  0.44045058  0.04287800    -0.14890
F234        F  0.13749311  0.31517659  0.07365336    -0.14890
F235        F  0.19721170  0.30957183  0.02692443    -0.12520
C236        C  0.19875900  0.34639939  0.44412256     0.25490
C237        C  0.21312802  0.37802816  0.46351297    -0.22620
C238        C  0.20226166  0.41354988  0.45198597     0.20390
C239        C  0.17504821  0.41732480  0.42382003     0.25430
C240        C  0.15421499  0.38571066  0.40961500    -0.22570
C241        C  0.16983093  0.35001555  0.41713609     0.20330
F242        F  0.15784815  0.31844795  0.39855440    -0.12520
F243        F  0.21169386  0.31185003  0.45230159    -0.14890
F244        F  0.16943742  0.45220660  0.41052682    -0.14890
F245        F  0.21657527  0.44494199  0.46913548    -0.12520
C246        C  0.42792836  0.43132363  0.16193386     0.25490
C247        C  0.39370290  0.41587288  0.14615055    -0.22620
C248        C  0.35909967  0.42451517  0.16495645     0.20390
C249        C  0.35822560  0.45270702  0.19288709     0.25430
C250        C  0.39212867  0.46974287  0.20627512    -0.22570
C251        C  0.42707894  0.45697291  0.19219664     0.20330
F252        F  0.46056792  0.47008596  0.20696375    -0.12520
F253        F  0.46249463  0.42159999  0.14784380    -0.14890
F254        F  0.32386878  0.46438973  0.20574982    -0.14890
F255        F  0.32571313  0.40658177  0.15622858    -0.12520
C256        C  0.42684896  0.32990969  0.08537852     0.25490
C257        C  0.41693026  0.35352305  0.11635141    -0.22620
C258        C  0.42860522  0.34130575  0.15262624     0.20390
C259        C  0.45442649  0.31175412  0.15649392     0.25430
C260        C  0.46675043  0.29094366  0.12508301    -0.22570
C261        C  0.45012228  0.29865086  0.08991962     0.20330
F262        F  0.45730007  0.27691869  0.05920420    -0.12520
F263        F  0.41437517  0.33737746  0.05005117    -0.14890
F264        F  0.46827985  0.30399954  0.19120925    -0.14890
F265        F  0.41570063  0.35757921  0.18486276    -0.12520
C266        C  0.33463587  0.41728417  0.07783662     0.25490
C267        C  0.35531239  0.38564508  0.09004947    -0.22620
C268        C  0.33914209  0.35013882  0.07977082     0.20390
C269        C  0.31108381  0.34700405  0.05125380     0.25430
C270        C  0.29752641  0.37906305  0.03357444    -0.22570
C271        C  0.30845458  0.41419022  0.04828725     0.20330
F272        F  0.29544556  0.44603504  0.03289957    -0.12520
F273        F  0.34093287  0.45199240  0.09307888    -0.14890
F274        F  0.29834770  0.31256640  0.03984174    -0.14890
F275        F  0.35001136  0.31836379  0.09686359    -0.12520
C276        C  0.31096563  0.34620824  0.44469778     0.25490
C277        C  0.29628073  0.37860518  0.46188398    -0.22620
C278        C  0.30392786  0.41315258  0.44504980     0.20390
C279        C  0.32932103  0.41563352  0.41479123     0.25430
C280        C  0.35117896  0.38431583  0.40320584    -0.22570
C281        C  0.33716390  0.34882876  0.41483876     0.20330
F282        F  0.34902863  0.31651682  0.39832707    -0.12520
F283        F  0.30109758  0.31198569  0.45780903    -0.14890
F284        F  0.33487830  0.44965196  0.39908783    -0.14890
F285        F  0.28871376  0.44511403  0.45906145    -0.12520
C286        C  0.35864815  0.41805922  0.32564622     0.25490
C287        C  0.39148083  0.41385492  0.34850591    -0.22620
C288        C  0.42581881  0.43155974  0.33617710     0.20390
C289        C  0.42539636  0.45789570  0.30758543     0.25430
C290        C  0.39140724  0.46582756  0.28870337    -0.22570
C291        C  0.35877426  0.44359824  0.29598147     0.20330
F292        F  0.32565482  0.44946577  0.27723408    -0.12520
F293        F  0.32614073  0.39808098  0.33204667    -0.14890
F294        F  0.45790260  0.47747498  0.29988676    -0.14890
F295        F  0.45987396  0.42461588  0.35291083    -0.12520
C296        C  0.45331826  0.31127539  0.34015129     0.25490
C297        C  0.46787362  0.29411130  0.37221633    -0.22620
C298        C  0.45192729  0.30307980  0.40735675     0.20390
C299        C  0.42540833  0.33189505  0.41089615     0.25430
C300        C  0.41404910  0.35309147  0.37924318    -0.22570
C301        C  0.42613537  0.33960841  0.34330853     0.20330
F302        F  0.41246882  0.35367583  0.31079583    -0.12520
F303        F  0.46664005  0.30154033  0.30552650    -0.14890
F304        F  0.41238215  0.34047345  0.44599389    -0.14890
F305        F  0.46315218  0.28513218  0.43874549    -0.12520
N306        N  0.04536179  0.07434058  0.54012792    -0.04230
N307        N  0.05330644  0.09986030  0.56644827    -0.56350
N308        N  0.06921964  0.04884008  0.95384839    -0.03910
N309        N  0.09469149  0.05640529  0.92811297    -0.58470
N310        N  0.04329109  0.07508295  0.95505354    -0.03500
N311        N  0.05100292  0.10139416  0.93026648    -0.56320
N312        N  0.07175044  0.04854919  0.53890244    -0.03180
N313        N  0.09813587  0.05576042  0.56437912    -0.58830
C314        C  0.08633046  0.08769507  0.58146661     0.97950
C315        C  0.08337785  0.08918769  0.91356548     0.97730
N316        N  0.04575291  0.43406555  0.95059017    -0.04410
N317        N  0.05523807  0.40635811  0.92754217    -0.56920
N318        N  0.07469155  0.46001331  0.53794882    -0.02530
N319        N  0.10072868  0.45032046  0.56326331    -0.58180
N320        N  0.04810996  0.43402340  0.53533938    -0.04440
N321        N  0.05601507  0.40664771  0.55755603    -0.57190
N322        N  0.07248079  0.46020326  0.95114975    -0.02170
N323        N  0.10044581  0.45063238  0.92821008    -0.58260
Mn324      Mn  0.07311230  0.50460914  0.49551054     1.18440
C325        C  0.08993905  0.41651684  0.91390674     1.00030
C326        C  0.08826635  0.41628730  0.57577837     1.00700
N327        N  0.45422711  0.07166909  0.95671512    -0.04460
N328        N  0.44702462  0.09816653  0.93281525    -0.60770
N329        N  0.42976837  0.04538967  0.54373496    -0.03260
N330        N  0.40290108  0.05366887  0.56830155    -0.61440
N331        N  0.45573441  0.07224429  0.54322147    -0.03970
N332        N  0.44680691  0.09909052  0.56754089    -0.61040
N333        N  0.42527362  0.04804901  0.95852631    -0.02860
N334        N  0.39676462  0.05992585  0.93730278    -0.61730
Mn335      Mn  0.99958800  0.07416892  0.49877200     1.10660
C336        C  0.41056963  0.09193712  0.92166293     1.01250
C337        C  0.41304646  0.08777984  0.58265539     1.01330
N338        N  0.45882064  0.43105768  0.53910614    -0.03980
N339        N  0.45186759  0.40427735  0.56355644    -0.59350
N340        N  0.42883838  0.45750573  0.95458278    -0.03290
N341        N  0.40196344  0.44776403  0.92998810    -0.56080
N342        N  0.45622348  0.43271197  0.95357306    -0.04610
N343        N  0.44848933  0.40588796  0.92875641    -0.58920
N344        N  0.43241992  0.45676773  0.54122290    -0.03590
N345        N  0.40759655  0.44816336  0.56752335    -0.56100
Mn346      Mn  0.50212825  0.43251700  0.99449196     1.20190
Mn347      Mn  0.42779695  0.00170530  0.99944417     1.10090
Cl348      Cl  0.00056522  0.00330283  0.49692912    -0.84070
C349        C  0.41924954  0.41496171  0.58103799     0.98260
C350        C  0.41419008  0.41504104  0.91435174     0.98060
C351        C  0.39174076  0.39064561  0.88524574    -0.00600
C352        C  0.39567227  0.39146781  0.60935971    -0.00600
C353        C  0.27455138  0.37639005  0.99816005     0.02460
C354        C  0.23563089  0.37435796  0.99858931     0.02450
C355        C  0.38961214  0.11680796  0.89310939    -0.00600
C356        C  0.38857897  0.00247608  0.76896311     0.02460
C357        C  0.39061868  0.00430512  0.73052685     0.02450
C358        C  0.38762632  0.11170063  0.60970788    -0.00600
C359        C  0.22772819  0.12152764  0.99927284     0.02460
C360        C  0.26682293  0.12222539  0.99952760     0.02450
C361        C  0.11553646  0.39114548  0.88858740    -0.00600
C362        C  0.00284343  0.23366428  0.86477411     0.02460
C363        C  0.00364973  0.27178722  0.86915186     0.02450
C364        C  0.10703174  0.10914555  0.88396389    -0.00600
C365        C  0.12508172  0.49440110  0.76636357     0.02460
C366        C  0.12112837  0.49323369  0.72846248     0.02450
C367        C  0.10884614  0.10647019  0.61306537    -0.00600
C368        C  0.10927210  0.38958267  0.60326406    -0.00600
C369        C  0.00189791  0.26696356  0.62838297     0.02460
C370        C  0.99983626  0.22868088  0.63018222     0.02450
C371        C  0.04470690  0.30249048  0.58720408     0.25490
C372        C  0.03799636  0.28838037  0.62289059    -0.22620
C373        C  0.06176203  0.30215901  0.65239348     0.20390
C374        C  0.08867991  0.33125135  0.64482923     0.25430
C375        C  0.08506345  0.35240839  0.61106199    -0.22570
C376        C  0.05493912  0.33968380  0.58697360     0.20330
F377        F  0.02203200  0.35948695  0.58845664    -0.12580
F378        F  0.02700036  0.28751269  0.55637356    -0.14890
F379        F  0.11540942  0.34019817  0.67135394    -0.14890
F380        F  0.05944996  0.28739373  0.68724107    -0.12520
C381        C  0.02518369  0.16635927  0.65069254     0.25490
C382        C  0.03354580  0.20190044  0.63588695    -0.22620
C383        C  0.07285304  0.20750420  0.62609413     0.20390
C384        C  0.09924748  0.17825138  0.62919800     0.25430
C385        C  0.08604033  0.14080862  0.62929300    -0.22570
C386        C  0.04878463  0.13616420  0.64406489     0.20330
F387        F  0.03353447  0.10266295  0.65248777    -0.12520
F388        F  0.99368914  0.15947071  0.67143666    -0.14890
F389        F  0.13715650  0.18680073  0.62866356    -0.14890
F390        F  0.08696727  0.23883906  0.61055752    -0.12520
C391        C  0.08289790  0.44326498  0.69360511     0.25490
C392        C  0.11846424  0.45721528  0.70658057    -0.22620
C393        C  0.15162224  0.44173866  0.69142085     0.20390
C394        C  0.14918512  0.41640621  0.66091718     0.25430
C395        C  0.11379666  0.41042444  0.64161905    -0.22570
C396        C  0.08050122  0.42228723  0.66030414     0.20330
F397        F  0.04528830  0.41359875  0.64622421    -0.12520
F398        F  0.05000914  0.45095493  0.71189198    -0.14890
F399        F  0.18144753  0.39825504  0.65078419    -0.14890
F400        F  0.18642457  0.45201437  0.70546167    -0.12520
C401        C  0.14770985  0.05206800  0.69834171     0.25490
C402        C  0.11687458  0.02760777  0.70590986    -0.22620
C403        C  0.08350816  0.03114122  0.68498149     0.20390
C404        C  0.08397507  0.05054981  0.65194650     0.25430
C405        C  0.11282586  0.07811393  0.64534517    -0.22570
C406        C  0.14387560  0.07986198  0.67105106     0.20330
F407        F  0.17214583  0.10593716  0.66749383    -0.12520
F408        F  0.18194889  0.04792870  0.71547985    -0.14890
F409        F  0.05425964  0.04311510  0.62806258    -0.14890
F410        F  0.05014039  0.01519357  0.69568170    -0.12520
C411        C  0.14540098  0.08157767  0.82737941     0.25490
C412        C  0.11200978  0.08150738  0.84992079    -0.22620
C413        C  0.08284856  0.05497680  0.83967056     0.20390
C414        C  0.08496718  0.03440819  0.80654510     0.25430
C415        C  0.12002689  0.02955692  0.78885385    -0.22570
C416        C  0.15078740  0.05314181  0.79994892     0.20330
F417        F  0.18628873  0.04762554  0.78601601    -0.12520
F418        F  0.17421425  0.10664381  0.83416758    -0.14890
F419        F  0.05282054  0.01703371  0.79355186    -0.14890
F420        F  0.05183509  0.04762976  0.86139545    -0.12520
C421        C  0.04859774  0.14077694  0.85186660     0.25490
C422        C  0.08539483  0.14433387  0.86866792    -0.22620
C423        C  0.10051809  0.18132352  0.86858187     0.20390
C424        C  0.07575138  0.21227205  0.86862805     0.25430
C425        C  0.03668123  0.20742219  0.85782452    -0.22570
C426        C  0.02753548  0.17191351  0.84252791     0.20330
F427        F  0.99682419  0.16660573  0.81967897    -0.12520
F428        F  0.03144445  0.10771597  0.84388374    -0.14890
F429        F  0.09141314  0.24545813  0.87926381    -0.14890
F430        F  0.13878037  0.18807064  0.86920368    -0.12520
C431        C  0.15624472  0.42168596  0.83485018     0.25490
C432        C  0.12044762  0.41201307  0.85118542    -0.22620
C433        C  0.08707524  0.42241558  0.83168876     0.20390
C434        C  0.08928895  0.44395858  0.79975335     0.25430
C435        C  0.12435110  0.45966330  0.78866653    -0.22570
C436        C  0.15796340  0.44705349  0.80529428     0.20330
F437        F  0.19244317  0.46012918  0.79355260    -0.12520
F438        F  0.18967367  0.40751376  0.84720738    -0.14890
F439        F  0.05643517  0.45087390  0.78122923    -0.14890
F440        F  0.05181276  0.41162240  0.84364110    -0.12520
C441        C  0.07965881  0.33346133  0.91369068     0.25490
C442        C  0.09389197  0.35296504  0.88214622    -0.22620
C443        C  0.08566056  0.33693423  0.84594117     0.20390
C444        C  0.05732482  0.30911499  0.84155260     0.25430
C445        C  0.03880432  0.29476645  0.87311476    -0.22570
C446        C  0.05170794  0.30557870  0.90922345     0.20330
F447        F  0.03714958  0.28919666  0.94030999    -0.12520
F448        F  0.09099003  0.34322569  0.94924715    -0.14890
F449        F  0.04754451  0.29656994  0.80646410    -0.14890
F450        F  0.10453307  0.34786529  0.81460878    -0.12520
C451        C  0.17423861  0.08563974  0.58521665     0.25490
C452        C  0.14714885  0.11474005  0.59177181    -0.22620
C453        C  0.15000540  0.14539346  0.56701187     0.20390
C454        C  0.18198550  0.15082241  0.54468757     0.25430
C455        C  0.20531196  0.12070958  0.53521210    -0.22570
C456        C  0.20107094  0.08785995  0.55590859     0.20330
F457        F  0.22049326  0.05669330  0.54593606    -0.12520
F458        F  0.17099671  0.05217279  0.60246035    -0.14890
F459        F  0.18807089  0.18512171  0.53033156    -0.14890
F460        F  0.12003647  0.16790030  0.56000532    -0.12520
C461        C  0.18490966  0.15246062  0.95199224     0.25490
C462        C  0.20440006  0.12070564  0.96363764    -0.22620
C463        C  0.19398867  0.08638268  0.94646596     0.20390
C464        C  0.16919086  0.08503674  0.91529906     0.25430
C465        C  0.14528847  0.11606249  0.90691069    -0.22570
C466        C  0.15157592  0.14828150  0.93038687     0.20330
F467        F  0.12379385  0.17352889  0.93725783    -0.12520
F468        F  0.19572862  0.18720276  0.96397048    -0.14890
F469        F  0.16418993  0.05118387  0.89781397    -0.14890
F470        F  0.20643747  0.05372123  0.96083430    -0.12520
C471        C  0.41141957  0.17045403  0.64989152     0.25490
C472        C  0.40681602  0.15147688  0.61461527    -0.22620
C473        C  0.42183612  0.17020430  0.58289108     0.20390
C474        C  0.45174051  0.19628727  0.58757466     0.25430
C475        C  0.46135676  0.21019101  0.62361771    -0.22570
C476        C  0.43707747  0.20108048  0.65371088     0.20330
F477        F  0.44308483  0.21706245  0.68825213    -0.12520
F478        F  0.39211905  0.15917890  0.68083729    -0.14890
F479        F  0.47309172  0.20569241  0.55725337    -0.14890
F480        F  0.41116550  0.15977032  0.54732151    -0.12520
C481        C  0.32826890  0.08179128  0.57619991     0.25490
C482        C  0.34725609  0.11443848  0.59067099    -0.22620
C483        C  0.32878408  0.14889949  0.58389912     0.20390
C484        C  0.29885967  0.15067633  0.55753166     0.25430
C485        C  0.28868268  0.11899974  0.53554820    -0.22570
C486        C  0.30249314  0.08419158  0.54623300     0.20330
F487        F  0.29200074  0.05251361  0.52693070    -0.12520
F488        F  0.33539384  0.04738978  0.59000209    -0.14890
F489        F  0.28122056  0.18375449  0.55215952    -0.14890
F490        F  0.33888397  0.18092543  0.60272014    -0.12520
C491        C  0.42352342  0.05382088  0.69288054     0.25490
C492        C  0.38976075  0.03995394  0.70908123    -0.22620
C493        C  0.35479114  0.05465101  0.69717698     0.20390
C494        C  0.35332916  0.07986999  0.66717872     0.25430
C495        C  0.38708517  0.09034352  0.64764241    -0.22570
C496        C  0.42227080  0.07913241  0.66341195     0.20330
F497        F  0.45592595  0.09081985  0.64853399    -0.12520
F498        F  0.45809578  0.04138234  0.70409355    -0.14890
F499        F  0.31872992  0.09341488  0.65746486    -0.14890
F500        F  0.32169483  0.04294440  0.71324473    -0.12520
C501        C  0.41117400  0.17523351  0.85398437     0.25490
C502        C  0.41378187  0.15394132  0.88721661    -0.22620
C503        C  0.43630265  0.17074010  0.91693926     0.20390
C504        C  0.46335298  0.19843487  0.90982534     0.25430
C505        C  0.46618490  0.21371339  0.87417369    -0.22570
C506        C  0.43754527  0.20470551  0.84732567     0.20330
F507        F  0.43781544  0.22142727  0.81333078    -0.12520
F508        F  0.38495619  0.16601851  0.82700034    -0.14890
F509        F  0.48792025  0.20949859  0.93772250    -0.14890
F510        F  0.43102689  0.16197653  0.95371951    -0.12520
C511        C  0.31705493  0.15786715  0.96403441     0.25490
C512        C  0.29078193  0.12783612  0.96493749    -0.22620
C513        C  0.29004919  0.10340887  0.93340197     0.20390
C514        C  0.31535949  0.10897461  0.90359664     0.25430
C515        C  0.34966764  0.12939034  0.90964135    -0.22570
C516        C  0.34636725  0.15845727  0.93739786     0.20330
F517        F  0.36731944  0.19049255  0.93611153    -0.12520
F518        F  0.31457631  0.18708915  0.98868349    -0.14890
F519        F  0.30419861  0.09723363  0.86865734    -0.14890
F520        F  0.26757434  0.07252604  0.93182806    -0.12520
C521        C  0.35944703  0.03448469  0.82463343     0.25490
C522        C  0.38580736  0.03608830  0.79510667    -0.22620
C523        C  0.41470918  0.06383551  0.79782775     0.20390
C524        C  0.41550878  0.09023325  0.82800760     0.25430
C525        C  0.38770135  0.08960224  0.85732117    -0.22570
C526        C  0.36380390  0.05699696  0.85670916     0.20330
F527        F  0.34534897  0.04463315  0.88771634    -0.12520
F528        F  0.33069713  0.00869400  0.82437570    -0.14890
F529        F  0.44701939  0.11243198  0.83093937    -0.14890
F530        F  0.44455555  0.06329480  0.77367221    -0.12520
C531        C  0.20437435  0.40906913  0.55159810     0.25490
C532        C  0.21218618  0.37485173  0.53370709    -0.22620
C533        C  0.18997333  0.34336026  0.54322710     0.20390
C534        C  0.15856661  0.34660561  0.56767546     0.25430
C535        C  0.14833303  0.38194384  0.58340053    -0.22570
C536        C  0.17365307  0.41255840  0.57616958     0.20330
F537        F  0.16818676  0.44697224  0.59197068    -0.12520
F538        F  0.22428075  0.44044963  0.54287800    -0.14890
F539        F  0.13749561  0.31517594  0.57365463    -0.14890
F540        F  0.19721394  0.30957082  0.52692540    -0.12520
C541        C  0.19875716  0.34640090  0.94412196     0.25490
C542        C  0.21312597  0.37802957  0.96351263    -0.22620
C543        C  0.20225957  0.41355137  0.95198592     0.20390
C544        C  0.17504617  0.41732641  0.92382000     0.25430
C545        C  0.15421304  0.38571229  0.90961482    -0.22570
C546        C  0.16982911  0.35001717  0.91713554     0.20330
F547        F  0.15784649  0.31844970  0.89855353    -0.12520
F548        F  0.21169217  0.31185154  0.95230071    -0.14890
F549        F  0.16943540  0.45220827  0.91052693    -0.14890
F550        F  0.21657310  0.44494340  0.96913566    -0.12520
C551        C  0.42792958  0.43132413  0.66193524     0.25490
C552        C  0.39370441  0.41587301  0.64615167    -0.22620
C553        C  0.35910093  0.42451529  0.66495717     0.20390
C554        C  0.35822639  0.45270734  0.69288767     0.25430
C555        C  0.39212920  0.46974349  0.70627602    -0.22570
C556        C  0.42707968  0.45697357  0.69219794     0.20330
F557        F  0.46056846  0.47008665  0.70696547    -0.12520
F558        F  0.46249607  0.42160062  0.64784560    -0.14890
F559        F  0.32386935  0.46438993  0.70574994    -0.14890
F560        F  0.32571456  0.40658171  0.65622903    -0.12520
C561        C  0.42685091  0.32990917  0.58538042     0.25490
C562        C  0.41693231  0.35352290  0.61635308    -0.22620
C563        C  0.42860766  0.34130610  0.65262798     0.20390
C564        C  0.45442914  0.31175464  0.65649584     0.25430
C565        C  0.46675279  0.29094370  0.62508511    -0.22570
C566        C  0.45012420  0.29865036  0.58992178     0.20330
F567        F  0.45730160  0.27691771  0.55920660    -0.12520
F568        F  0.41437705  0.33737656  0.55005300    -0.14890
F569        F  0.46828291  0.30400061  0.69121115    -0.14890
F570        F  0.41570332  0.35757995  0.68486441    -0.12520
C571        C  0.33463813  0.41728372  0.57783698     0.25490
C572        C  0.35531453  0.38564473  0.59005028    -0.22620
C573        C  0.33914424  0.35013843  0.57977171     0.20390
C574        C  0.31108615  0.34700348  0.55125445     0.25430
C575        C  0.29752883  0.37906237  0.53357477    -0.22570
C576        C  0.30845701  0.41418960  0.54828744     0.20330
F577        F  0.29544802  0.44603434  0.53289956    -0.12520
F578        F  0.34093500  0.45199205  0.59307908    -0.14890
F579        F  0.29835011  0.31256576  0.53984254    -0.14890
F580        F  0.35001329  0.31836351  0.59686483    -0.12520
C581        C  0.31096360  0.34620908  0.94469775     0.25490
C582        C  0.29627853  0.37860602  0.96188378    -0.22620
C583        C  0.30392565  0.41315340  0.94504960     0.20390
C584        C  0.32931889  0.41563434  0.91479112     0.25430
C585        C  0.35117690  0.38431665  0.90320581    -0.22570
C586        C  0.33716198  0.34882959  0.91483885     0.20330
F587        F  0.34902694  0.31651762  0.89832739    -0.12520
F588        F  0.30109559  0.31198654  0.95780906    -0.14890
F589        F  0.33487612  0.44965279  0.89908772    -0.14890
F590        F  0.28871150  0.44511485  0.95906120    -0.12520
C591        C  0.35864582  0.41806063  0.82564655     0.25490
C592        C  0.39147864  0.41385582  0.84850592    -0.22620
C593        C  0.42581674  0.43156034  0.83617702     0.20390
C594        C  0.42539434  0.45789663  0.80758573     0.25430
C595        C  0.39140513  0.46582904  0.78870415    -0.22570
C596        C  0.35877196  0.44360001  0.79598217     0.20330
F597        F  0.32565252  0.44946800  0.77723493    -0.12520
F598        F  0.32613828  0.39808256  0.83204697    -0.14890
F599        F  0.45790073  0.47747562  0.79988695    -0.14890
F600        F  0.45987194  0.42461593  0.85291041    -0.12520
C601        C  0.45331622  0.31127677  0.84015059     0.25490
C602        C  0.46787217  0.29411289  0.87221549    -0.22620
C603        C  0.45192607  0.30308118  0.90735608     0.20390
C604        C  0.42540678  0.33189612  0.91089576     0.25430
C605        C  0.41404705  0.35309244  0.87924290    -0.22570
C606        C  0.42613300  0.33960944  0.84330813     0.20330
F607        F  0.41246579  0.35367660  0.81079558    -0.12520
F608        F  0.46663772  0.30154183  0.80552566    -0.14890
F609        F  0.41238077  0.34047434  0.94599360    -0.14890
F610        F  0.46315140  0.28513361  0.93874469    -0.12520
N611        N  0.04535962  0.57434096  0.04013018    -0.04230
N612        N  0.05330384  0.59986020  0.06645107    -0.56350
N613        N  0.06922232  0.54883911  0.45385011    -0.03910
N614        N  0.09469411  0.55640483  0.42811478    -0.58470
N615        N  0.04329360  0.57508178  0.45505556    -0.03500
N616        N  0.05100515  0.60139330  0.43026880    -0.56320
N617        N  0.07174856  0.54854986  0.03890432    -0.03180
N618        N  0.09813371  0.55576070  0.06438137    -0.58830
C619        C  0.08632782  0.58769489  0.08146938     0.97950
C620        C  0.08338014  0.58918729  0.41356763     0.97730
N621        N  0.04575414  0.93406382  0.45058922    -0.04410
N622        N  0.05523938  0.90635636  0.42754122    -0.56920
N623        N  0.07468804  0.96001422  0.03794739    -0.02530
N624        N  0.10072503  0.95032084  0.06326180    -0.58180
N625        N  0.04810618  0.93402459  0.03533783    -0.04440
N626        N  0.05601080  0.90664877  0.05755448    -0.57190
N627        N  0.07248198  0.96020155  0.45114881    -0.02170
N628        N  0.10044698  0.95063078  0.42820909    -0.58260
Mn629      Mn  0.07310927  0.00461025  0.99550908     1.18440
C630        C  0.08994031  0.91651524  0.41390572     1.00030
C631        C  0.08826224  0.91628773  0.07577668     1.00700
N632        N  0.45423021  0.57166718  0.45671668    -0.04460
N633        N  0.44702813  0.59816446  0.43281652    -0.60770
N634        N  0.42976633  0.54538979  0.04373581    -0.03260
N635        N  0.40289871  0.55366810  0.06830228    -0.61440
N636        N  0.45573188  0.57224484  0.04322278    -0.03970
N637        N  0.44680346  0.59909074  0.06754230    -0.61040
N638        N  0.42527654  0.54804737  0.45852800    -0.02860
N639        N  0.39676767  0.55992446  0.43730445    -0.61730
Mn640      Mn  0.99958637  0.57416983  0.99877387     1.10660
C641        C  0.41057306  0.59193553  0.42166444     1.01250
C642        C  0.41304309  0.58777913  0.08265647     1.01330
N643        N  0.45881741  0.93105887  0.03910370    -0.03980
N644        N  0.45186427  0.90427806  0.06355341    -0.59350
N645        N  0.42883943  0.95750473  0.45458216    -0.03290
N646        N  0.40196470  0.94776348  0.42998708    -0.56080
N647        N  0.45622445  0.93271086  0.45357228    -0.04610
N648        N  0.44849039  0.90588720  0.42875519    -0.58920
N649        N  0.43241675  0.95676894  0.04122078    -0.03590
N650        N  0.40759317  0.94816400  0.06752086    -0.56100
Mn651      Mn  0.50212940  0.93251570  0.49449105     1.20190
Mn652      Mn  0.42779990  0.50170371  0.49944600     1.10090
Cl653      Cl  0.00056387  0.50330392  0.99693029    -0.84070
C654        C  0.41924614  0.91496206  0.08103490     0.98260
C655        C  0.41419132  0.91504063  0.41435034     0.98060
C656        C  0.39174206  0.89064568  0.38524386    -0.00600
C657        C  0.39566930  0.89146792  0.10935667    -0.00600
C658        C  0.27455272  0.87638950  0.49815883     0.02460
C659        C  0.23563217  0.87435665  0.49858828     0.02450
C660        C  0.38961564  0.61680663  0.39311113    -0.00600
C661        C  0.38857953  0.50247412  0.26896522     0.02460
C662        C  0.39061786  0.50430353  0.23052883     0.02450
C663        C  0.38762204  0.61169886  0.10970913    -0.00600
C664        C  0.22773009  0.62152713  0.49927262     0.02460
C665        C  0.26682484  0.62222313  0.49952780     0.02450
C666        C  0.11553779  0.89114428  0.38858605    -0.00600
C667        C  0.00284468  0.73366374  0.36477039     0.02460
C668        C  0.00365090  0.77178679  0.36914739     0.02450
C669        C  0.10703305  0.60914516  0.38396530    -0.00600
C670        C  0.12508308  0.99439935  0.26636146     0.02460
C671        C  0.12112576  0.99323209  0.22846068     0.02450
C672        C  0.10884375  0.60647036  0.11306762    -0.00600
C673        C  0.10926782  0.88958235  0.10326167    -0.00600
C674        C  0.00189336  0.76696248  0.12837896     0.02460
C675        C  0.99983161  0.72867983  0.13017997     0.02450
C676        C  0.04470348  0.80248895  0.08720034     0.25490
C677        C  0.03799184  0.78837950  0.12288698    -0.22620
C678        C  0.06175632  0.80215888  0.15239036     0.20390
C679        C  0.08867417  0.83125131  0.14482661     0.25430
C680        C  0.08505890  0.85240789  0.11105891    -0.22570
C681        C  0.05493586  0.83968234  0.08696917     0.20330
F682        F  0.02202827  0.85948482  0.08844983    -0.12580
F683        F  0.02699768  0.78751047  0.05636971    -0.14890
F684        F  0.11540261  0.84019850  0.17135224    -0.14890
F685        F  0.05944303  0.78739430  0.18723819    -0.12520
C686        C  0.02517996  0.66635892  0.15069251     0.25490
C687        C  0.03354143  0.70189970  0.13588552    -0.22620
C688        C  0.07284866  0.70750376  0.12609267     0.20390
C689        C  0.09924383  0.67825171  0.12919789     0.25430
C690        C  0.08603760  0.64080874  0.12929502    -0.22570
C691        C  0.04878207  0.63616420  0.14406724     0.20330
F692        F  0.03353316  0.60266308  0.15249275    -0.12520
F693        F  0.99368516  0.65947029  0.17143615    -0.14890
F694        F  0.13715265  0.68680175  0.12866163    -0.14890
F695        F  0.08696227  0.73883803  0.11055443    -0.12520
C696        C  0.08289439  0.94326371  0.19360356     0.25490
C697        C  0.11846094  0.95721371  0.20657881    -0.22620
C698        C  0.15161869  0.94173677  0.19141893     0.20390
C699        C  0.14918117  0.91640462  0.16091507     0.25430
C700        C  0.11379262  0.91042351  0.14161696    -0.22570
C701        C  0.08049735  0.92228630  0.16030237     0.20330
F702        F  0.04528431  0.91359801  0.14622258    -0.12520
F703        F  0.05000587  0.95095352  0.21189096    -0.14890
F704        F  0.18144331  0.89825310  0.15078186    -0.14890
F705        F  0.18642119  0.95201202  0.20545965    -0.12520
C706        C  0.14770914  0.55206805  0.19834345     0.25490
C707        C  0.11687408  0.52760765  0.20591211    -0.22620
C708        C  0.08350731  0.53114123  0.18498429     0.20390
C709        C  0.08397363  0.55054991  0.15194929     0.25430
C710        C  0.11282424  0.57811410  0.14534746    -0.22570
C711        C  0.14387428  0.57986225  0.17105300     0.20330
F712        F  0.17214425  0.60593763  0.16749545    -0.12520
F713        F  0.18194859  0.54792868  0.21548077    -0.14890
F714        F  0.05425770  0.54311534  0.12806593    -0.14890
F715        F  0.05013971  0.51519360  0.19568505    -0.12520
C716        C  0.14540100  0.58157723  0.32738011     0.25490
C717        C  0.11201030  0.58150684  0.34992220    -0.22620
C718        C  0.08284917  0.55497577  0.33967291     0.20390
C719        C  0.08496754  0.53440635  0.30654797     0.25430
C720        C  0.12002696  0.52955540  0.28885608    -0.22570
C721        C  0.15078729  0.55314100  0.29995003     0.20330
F722        F  0.18628844  0.54762497  0.28601658    -0.12520
F723        F  0.17421408  0.60664383  0.33416729    -0.14890
F724        F  0.05282107  0.51703049  0.29355615    -0.14890
F725        F  0.05183703  0.54762743  0.36139914    -0.12520
C726        C  0.04859711  0.64077509  0.35187091     0.25490
C727        C  0.08539533  0.64433295  0.36866948    -0.22620
C728        C  0.10051930  0.68132231  0.36857921     0.20390
C729        C  0.07575324  0.71227145  0.36862254     0.25430
C730        C  0.03668241  0.70742109  0.35782144    -0.22570
C731        C  0.02753563  0.67191105  0.34252880     0.20330
F732        F  0.99682372  0.66660159  0.31968105    -0.12520
F733        F  0.03144153  0.60771363  0.34389528    -0.14890
F734        F  0.09141663  0.74545882  0.37925162    -0.14890
F735        F  0.13878174  0.68806858  0.36919897    -0.12520
C736        C  0.15624613  0.92168498  0.33484891     0.25490
C737        C  0.12044903  0.91201241  0.35118433    -0.22620
C738        C  0.08707664  0.92241509  0.33168776     0.20390
C739        C  0.08929039  0.94395743  0.29975190     0.25430
C740        C  0.12435261  0.95966159  0.28866451    -0.22570
C741        C  0.15796487  0.94705201  0.30529254     0.20330
F742        F  0.19244466  0.96012738  0.29355060    -0.12520
F743        F  0.18967505  0.90751283  0.34720625    -0.14890
F744        F  0.05643653  0.95087300  0.28122803    -0.14890
F745        F  0.05181412  0.91162239  0.34364040    -0.12520
C746        C  0.07966007  0.83345943  0.41368791     0.25490
C747        C  0.09389337  0.85296392  0.38214400    -0.22620
C748        C  0.08566193  0.83693408  0.34593852     0.20390
C749        C  0.05732576  0.80911541  0.34154914     0.25430
C750        C  0.03880550  0.79476577  0.37311090    -0.22570
C751        C  0.05170947  0.80557662  0.40921986     0.20330
F752        F  0.03715121  0.78919354  0.44030588    -0.12520
F753        F  0.09099106  0.84322300  0.44924465    -0.14890
F754        F  0.04754520  0.79657159  0.30646028    -0.14890
F755        F  0.10453476  0.84786555  0.31460646    -0.12520
C756        C  0.17423727  0.58564233  0.08521851     0.25490
C757        C  0.14714558  0.61474105  0.09177270    -0.22620
C758        C  0.14999857  0.64539264  0.06701014     0.20390
C759        C  0.18197684  0.65082228  0.04468349     0.25430
C760        C  0.20530721  0.62071138  0.03521098    -0.22570
C761        C  0.20106942  0.58786300  0.05591020     0.20330
F762        F  0.22049444  0.55669738  0.04593983    -0.12520
F763        F  0.17099777  0.55217597  0.10246365    -0.14890
F764        F  0.18805639  0.68512025  0.03032245    -0.14890
F765        F  0.12002761  0.66789707  0.06000391    -0.12520
C766        C  0.18491376  0.65246086  0.45199048     0.25490
C767        C  0.20440244  0.62070535  0.46363720    -0.22620
C768        C  0.19399003  0.58638234  0.44646640     0.20390
C769        C  0.16919237  0.58503643  0.41529950     0.25430
C770        C  0.14529049  0.61606244  0.40691079    -0.22570
C771        C  0.15157985  0.64828252  0.43038509     0.20330
F772        F  0.12379939  0.67353195  0.43725456    -0.12520
F773        F  0.19573464  0.68720290  0.46396748    -0.14890
F774        F  0.16419112  0.55118347  0.39781465    -0.14890
F775        F  0.20643908  0.55372095  0.46083472    -0.12520
C776        C  0.41141553  0.67045269  0.14989229     0.25490
C777        C  0.40681056  0.65147576  0.11461611    -0.22620
C778        C  0.42182915  0.67020353  0.08289145     0.20390
C779        C  0.45173379  0.69628650  0.08757401     0.25430
C780        C  0.46135176  0.71018985  0.12361680    -0.22570
C781        C  0.43707345  0.70107929  0.15371078     0.20330
F782        F  0.44308200  0.71706121  0.18825186    -0.12520
F783        F  0.39211653  0.65917709  0.18083880    -0.14890
F784        F  0.47308370  0.70569180  0.05725191    -0.14890
F785        F  0.41115755  0.65976917  0.04732226    -0.12520
C786        C  0.32826591  0.58178818  0.07619937     0.25490
C787        C  0.34725139  0.61443544  0.09067254    -0.22620
C788        C  0.32877689  0.64889570  0.08390346     0.20390
C789        C  0.29885190  0.65067245  0.05753646     0.25430
C790        C  0.28867815  0.61899717  0.03554951    -0.22570
C791        C  0.30249088  0.58418905  0.04623181     0.20330
F792        F  0.29200069  0.55251182  0.02692707    -0.12520
F793        F  0.33539149  0.54738634  0.09000042    -0.14890
F794        F  0.28121040  0.68374983  0.05216677    -0.14890
F795        F  0.33887495  0.68092083  0.10272683    -0.12520
C796        C  0.42352121  0.55381968  0.19288167     0.25490
C797        C  0.38975902  0.53995241  0.20908311    -0.22620
C798        C  0.35478899  0.55464862  0.19717887     0.20390
C799        C  0.35332614  0.57986712  0.16718018     0.25430
C800        C  0.38708177  0.59034157  0.14764367    -0.22570
C801        C  0.42226779  0.57913113  0.16341298     0.20330
F802        F  0.45592262  0.59081911  0.14853470    -0.12520
F803        F  0.45809393  0.54138142  0.20409395    -0.14890
F804        F  0.31872639  0.59341069  0.15746614    -0.14890
F805        F  0.32169306  0.54294156  0.21324705    -0.12520
C806        C  0.41117512  0.67523243  0.35398556     0.25490
C807        C  0.41378538  0.65393987  0.38721741    -0.22620
C808        C  0.43630833  0.67073836  0.41693870     0.20390
C809        C  0.46335731  0.69843396  0.40982349     0.25430
C810        C  0.46618654  0.71371309  0.37417195    -0.22570
C811        C  0.43754556  0.70470484  0.34732548     0.20330
F812        F  0.43781360  0.72142664  0.31333060    -0.12520
F813        F  0.38495577  0.66601730  0.32700304    -0.14890
F814        F  0.48792620  0.70949779  0.43771925    -0.14890
F815        F  0.43103539  0.66197478  0.45371934    -0.12520
C816        C  0.31705998  0.65786403  0.46403846     0.25490
C817        C  0.29078461  0.62783484  0.46493825    -0.22620
C818        C  0.29005045  0.60341072  0.43340013     0.20390
C819        C  0.31536221  0.60897720  0.40359601     0.25430
C820        C  0.34967191  0.62938951  0.40964399    -0.22570
C821        C  0.34637310  0.65845420  0.43740299     0.20330
F822        F  0.36732745  0.69048826  0.43612006    -0.12520
F823        F  0.31458290  0.68708440  0.48868967    -0.14890
F824        F  0.30420334  0.59723721  0.36865579    -0.14890
F825        F  0.26757332  0.57252959  0.43182257    -0.12520
C826        C  0.35944916  0.53448203  0.32463705     0.25490
C827        C  0.38580832  0.53608606  0.29510921    -0.22620
C828        C  0.41470955  0.56383388  0.29782898     0.20390
C829        C  0.41550986  0.59023172  0.32800863     0.25430
C830        C  0.38770360  0.58960062  0.35732318    -0.22570
C831        C  0.36380597  0.55699540  0.35671212     0.20330
F832        F  0.34534982  0.54463355  0.38771942    -0.12520
F833        F  0.33070007  0.50869047  0.32438063    -0.14890
F834        F  0.44702015  0.61243090  0.33093902    -0.14890
F835        F  0.44455495  0.56329367  0.27367230    -0.12520
C836        C  0.20437062  0.90906952  0.05159660     0.25490
C837        C  0.21218270  0.87485233  0.03370527    -0.22620
C838        C  0.18996965  0.84336076  0.04322462     0.20390
C839        C  0.15856258  0.84660583  0.06767263     0.25430
C840        C  0.14832879  0.88194385  0.08339798    -0.22570
C841        C  0.17364899  0.91255849  0.07616772     0.20330
F842        F  0.16818268  0.94697211  0.09196934    -0.12520
F843        F  0.22427722  0.94045013  0.04287725    -0.14890
F844        F  0.13749159  0.81517606  0.07365135    -0.14890
F845        F  0.19721046  0.80957150  0.02692265    -0.12520
C846        C  0.19875818  0.84639948  0.44412103     0.25490
C847        C  0.21312710  0.87802816  0.46351164    -0.22620
C848        C  0.20226078  0.91354995  0.45198487     0.20390
C849        C  0.17504743  0.91732502  0.42381888     0.25430
C850        C  0.15421432  0.88571093  0.40961358    -0.22570
C851        C  0.16983024  0.85001578  0.41713446     0.20330
F852        F  0.15784760  0.81844831  0.39855247    -0.12520
F853        F  0.21169303  0.81185009  0.45229991    -0.14890
F854        F  0.16943665  0.95220691  0.41052591    -0.14890
F855        F  0.21657431  0.94494195  0.46913464    -0.12520
C856        C  0.42792812  0.93132348  0.16193156     0.25490
C857        C  0.39370241  0.91587285  0.14614868    -0.22620
C858        C  0.35909939  0.92451561  0.16495468     0.20390
C859        C  0.35822574  0.95270791  0.19288485     0.25430
C860        C  0.39212907  0.96974361  0.20627241    -0.22570
C861        C  0.42707913  0.95697325  0.19219389     0.20330
F862        F  0.46056831  0.97008644  0.20696043    -0.12520
F863        F  0.46249420  0.92159941  0.14784135    -0.14890
F864        F  0.32386911  0.96439122  0.20574750    -0.14890
F865        F  0.32571266  0.90658235  0.15622728    -0.12520
C866        C  0.42684758  0.82990940  0.08537661     0.25490
C867        C  0.41692911  0.85352283  0.11634953    -0.22620
C868        C  0.42860394  0.84130536  0.15262435     0.20390
C869        C  0.45442472  0.81175333  0.15649202     0.25430
C870        C  0.46674840  0.79094272  0.12508110    -0.22570
C871        C  0.45012050  0.79865026  0.08991768     0.20330
F872        F  0.45729822  0.77691812  0.05920222    -0.12520
F873        F  0.41437388  0.83737737  0.05004928    -0.14890
F874        F  0.46827798  0.80399858  0.19120735    -0.14890
F875        F  0.41569971  0.85757910  0.18486089    -0.12520
C876        C  0.33463484  0.91728431  0.07783517     0.25490
C877        C  0.35531129  0.88564516  0.09004797    -0.22620
C878        C  0.33914086  0.85013895  0.07976938     0.20390
C879        C  0.31108262  0.84700425  0.05125233     0.25430
C880        C  0.29752539  0.87906329  0.03357294    -0.22570
C881        C  0.30845354  0.91419043  0.04828581     0.20330
F882        F  0.29544444  0.94603528  0.03289823    -0.12520
F883        F  0.34093193  0.95199254  0.09307742    -0.14890
F884        F  0.29834640  0.81256664  0.03984027    -0.14890
F885        F  0.35000998  0.81836390  0.09686220    -0.12520
C886        C  0.31096495  0.84620887  0.44469607     0.25490
C887        C  0.29627985  0.87860570  0.46188237    -0.22620
C888        C  0.30392697  0.91315316  0.44504824     0.20390
C889        C  0.32932011  0.91563424  0.41478960     0.25430
C890        C  0.35117810  0.88431662  0.40320395    -0.22570
C891        C  0.33716324  0.84882953  0.41483701     0.20330
F892        F  0.34902810  0.81651764  0.39832533    -0.12520
F893        F  0.30109704  0.81198627  0.45780726    -0.14890
F894        F  0.33487733  0.94965276  0.39908635    -0.14890
F895        F  0.28871282  0.94511455  0.45905998    -0.12520
C896        C  0.35864781  0.91806086  0.32564425     0.25490
C897        C  0.39148024  0.91385643  0.34850426    -0.22620
C898        C  0.42581849  0.93156092  0.33617561     0.20390
C899        C  0.42539663  0.95789644  0.30758351     0.25430
C900        C  0.39140787  0.96582822  0.28870080    -0.22570
C901        C  0.35877458  0.94359930  0.29597897     0.20330
F902        F  0.32565542  0.94946672  0.27723106    -0.12520
F903        F  0.32614007  0.89808315  0.33204475    -0.14890
F904        F  0.45790313  0.97747534  0.29988496    -0.14890
F905        F  0.45987342  0.92461698  0.35290972    -0.12520
C906        C  0.45331731  0.81127722  0.34014707     0.25490
C907        C  0.46787332  0.79411262  0.37221155    -0.22620
C908        C  0.45192737  0.80308047  0.40735236     0.20390
C909        C  0.42540819  0.83189551  0.41089268     0.25430
C910        C  0.41404834  0.85309245  0.37924030    -0.22570
C911        C  0.42613419  0.83960999  0.34330525     0.20330
F912        F  0.41246692  0.85367771  0.31079298    -0.12520
F913        F  0.46663856  0.80154281  0.30552189    -0.14890
F914        F  0.41238230  0.84047308  0.44599071    -0.14890
F915        F  0.46315272  0.78513229  0.43874059    -0.12520
N916        N  0.04536192  0.57434000  0.54012983    -0.04230
N917        N  0.05330631  0.59985962  0.56645028    -0.56350
N918        N  0.06922029  0.54884059  0.95385010    -0.03910
N919        N  0.09469187  0.55640620  0.92811454    -0.58470
N920        N  0.04329166  0.57508334  0.95505571    -0.03500
N921        N  0.05100312  0.60139483  0.93026886    -0.56320
N922        N  0.07175089  0.54854892  0.53890412    -0.03180
N923        N  0.09813624  0.55576019  0.56438086    -0.58830
C924        C  0.08633043  0.58769460  0.58146852     0.97950
C925        C  0.08337794  0.58918871  0.91356743     0.97730
N926        N  0.04575211  0.93406526  0.95058889    -0.04410
N927        N  0.05523746  0.90635781  0.92754093    -0.56920
N928        N  0.07469039  0.96001316  0.53794766    -0.02530
N929        N  0.10072745  0.95032003  0.56326212    -0.58180
N930        N  0.04810873  0.93402332  0.53533806    -0.04440
N931        N  0.05601367  0.90664749  0.55755459    -0.57190
N932        N  0.07247990  0.96020304  0.95114856    -0.02170
N933        N  0.10044497  0.95063232  0.92820892    -0.58260
Mn934      Mn  0.07311144  0.00460898  0.49550919     1.18440
C935        C  0.08993840  0.91651677  0.91390553     1.00030
C936        C  0.08826495  0.91628683  0.57577699     1.00700
N937        N  0.45422847  0.57166841  0.95671639    -0.04460
N938        N  0.44702668  0.59816577  0.93281627    -0.60770
N939        N  0.42976864  0.54538884  0.54373625    -0.03260
N940        N  0.40290109  0.55366744  0.56830272    -0.61440
N941        N  0.45573429  0.57224378  0.54322302    -0.03970
N942        N  0.44680610  0.59908983  0.56754244    -0.61040
N943        N  0.42527466  0.54804874  0.95852755    -0.02860
N944        N  0.39676592  0.55992611  0.93730399    -0.61730
Mn945      Mn  0.99958847  0.57416857  0.49877383     1.10660
C946        C  0.41057159  0.59193720  0.92166420     1.01250
C947        C  0.41304570  0.58777849  0.58265672     1.01330
N948        N  0.45881966  0.93105777  0.53910457    -0.03980
N949        N  0.45186642  0.90427720  0.56355454    -0.59350
N950        N  0.42883741  0.95750606  0.95458147    -0.03290
N951        N  0.40196254  0.94776455  0.92998665    -0.56080
N952        N  0.45622248  0.93271225  0.95357162    -0.04610
N953        N  0.44848832  0.90588837  0.92875482    -0.58920
N954        N  0.43241915  0.95676800  0.54122160    -0.03590
N955        N  0.40759566  0.94816346  0.56752188    -0.56100
Mn956      Mn  0.50212721  0.93251708  0.99449053     1.20190
Mn957      Mn  0.42779775  0.50170487  0.99944541     1.10090
Cl958      Cl  0.00056604  0.50330263  0.49693060    -0.84070
C959        C  0.41924843  0.91496157  0.58103614     0.98260
C960        C  0.41418915  0.91504161  0.91435012     0.98060
C961        C  0.39173990  0.89064653  0.88524378    -0.00600
C962        C  0.39567125  0.89146774  0.60935794    -0.00600
C963        C  0.27455042  0.87639033  0.99815855     0.02460
C964        C  0.23562992  0.87435783  0.99858794     0.02450
C965        C  0.38961418  0.61680883  0.89311143    -0.00600
C966        C  0.38857788  0.50247545  0.76896589     0.02460
C967        C  0.39061788  0.50430443  0.73052953     0.02450
C968        C  0.38762473  0.61169868  0.60970903    -0.00600
C969        C  0.22772755  0.62152829  0.99927252     0.02460
C970        C  0.26682236  0.62222389  0.99952789     0.02450
C971        C  0.11553595  0.89114593  0.88858586    -0.00600
C972        C  0.00284325  0.73366548  0.86476864     0.02460
C973        C  0.00364946  0.77178845  0.86914624     0.02450
C974        C  0.10703092  0.60914671  0.88396511    -0.00600
C975        C  0.12508236  0.99440084  0.76636155     0.02460
C976        C  0.12112708  0.99323313  0.72846064     0.02450
C977        C  0.10884614  0.60647023  0.61306682    -0.00600
C978        C  0.10927052  0.88958190  0.60326250    -0.00600
C979        C  0.00189574  0.76696256  0.62838097     0.02460
C980        C  0.99983411  0.72867985  0.63018089     0.02450
C981        C  0.04470491  0.80248963  0.58720213     0.25490
C982        C  0.03799417  0.78837958  0.62288866    -0.22620
C983        C  0.06175967  0.80215831  0.65239163     0.20390
C984        C  0.08867768  0.83125059  0.64482750     0.25430
C985        C  0.08506166  0.85240756  0.61106014    -0.22570
C986        C  0.05493751  0.83968290  0.58697147     0.20330
F987        F  0.02203043  0.85948613  0.58845385    -0.12580
F988        F  0.02699837  0.78751184  0.55637161    -0.14890
F989        F  0.11540690  0.84019742  0.67135248    -0.14890
F990        F  0.05944726  0.78739321  0.68723928    -0.12520
C991        C  0.02518233  0.66635858  0.65069212     0.25490
C992        C  0.03354392  0.70189963  0.63588589    -0.22620
C993        C  0.07285113  0.70750374  0.62609300     0.20390
C994        C  0.09924619  0.67825152  0.62919772     0.25430
C995        C  0.08603982  0.64080856  0.62929405    -0.22570
C996        C  0.04878412  0.63616387  0.64406584     0.20330
F997        F  0.03353456  0.60266258  0.65248959    -0.12520
F998        F  0.99368750  0.65946965  0.67143565    -0.14890
F999        F  0.13715505  0.68680148  0.62866207    -0.14890
F1000       F  0.08696474  0.73883822  0.61055517    -0.12520
C1001       C  0.08289630  0.94326427  0.69360359     0.25490
C1002       C  0.11846269  0.95721455  0.70657898    -0.22620
C1003       C  0.15162062  0.94173763  0.69141942     0.20390
C1004       C  0.14918344  0.91640510  0.66091583     0.25430
C1005       C  0.11379502  0.91042349  0.64161761    -0.22570
C1006       C  0.08049959  0.92228639  0.66030268     0.20330
F1007       F  0.04528666  0.91359792  0.64622275    -0.12520
F1008       F  0.05000758  0.95095432  0.71189050    -0.14890
F1009       F  0.18144576  0.89825374  0.65078292    -0.14890
F1010       F  0.18642299  0.95201323  0.70546025    -0.12520
C1011       C  0.14771110  0.55206845  0.69834303     0.25490
C1012       C  0.11687580  0.52760844  0.70591184    -0.22620
C1013       C  0.08350911  0.53114199  0.68498397     0.20390
C1014       C  0.08397577  0.55055009  0.65194869     0.25430
C1015       C  0.11282645  0.57811420  0.64534680    -0.22570
C1016       C  0.14387646  0.57986243  0.67105237     0.20330
F1017       F  0.17214661  0.60593761  0.66749468    -0.12520
F1018       F  0.18195049  0.54792892  0.71548046    -0.14890
F1019       F  0.05426033  0.54311481  0.62806494    -0.14890
F1020       F  0.05014142  0.51519456  0.69568477    -0.12520
C1021       C  0.14539921  0.58157915  0.82737997     0.25490
C1022       C  0.11200837  0.58150856  0.84992188    -0.22620
C1023       C  0.08284738  0.55497749  0.83967227     0.20390
C1024       C  0.08496610  0.53440812  0.80654729     0.25430
C1025       C  0.12002572  0.52955718  0.78885575    -0.22570
C1026       C  0.15078582  0.55314300  0.79994987     0.20330
F1027       F  0.18628707  0.54762723  0.78601660    -0.12520
F1028       F  0.17421214  0.60664587  0.83416735    -0.14890
F1029       F  0.05281976  0.51703232  0.79355511    -0.14890
F1030       F  0.05183537  0.54762864  0.86139848    -0.12520
C1031       C  0.04859481  0.64077648  0.85187111     0.25490
C1032       C  0.08539321  0.64433445  0.86866921    -0.22620
C1033       C  0.10051760  0.68132363  0.86857772     0.20390
C1034       C  0.07575190  0.71227307  0.86862016     0.25430
C1035       C  0.03668090  0.70742272  0.85781962    -0.22570
C1036       C  0.02753375  0.67191238  0.84252794     0.20330
F1037       F  0.99682166  0.66660262  0.81968048    -0.12520
F1038       F  0.03143855  0.60771494  0.84389728    -0.14890
F1039       F  0.09141586  0.74546076  0.87924734    -0.14890
F1040       F  0.13878013  0.68806947  0.86919686    -0.12520
C1041       C  0.15624464  0.92168647  0.83484903     0.25490
C1042       C  0.12044741  0.91201417  0.85118434    -0.22620
C1043       C  0.08707513  0.92241707  0.83168774     0.20390
C1044       C  0.08928913  0.94395935  0.79975191     0.25430
C1045       C  0.12435149  0.95966330  0.78866474    -0.22570
C1046       C  0.15796363  0.94705350  0.80529275     0.20330
F1047       F  0.19244354  0.96012866  0.79355088    -0.12520
F1048       F  0.18967342  0.90751403  0.84720637    -0.14890
F1049       F  0.05643542  0.95087489  0.78122776    -0.14890
F1050       F  0.05181250  0.91162451  0.84364023    -0.12520
C1051       C  0.07965844  0.83346081  0.91368727     0.25490
C1052       C  0.09389161  0.85296563  0.88214352    -0.22620
C1053       C  0.08566018  0.83693610  0.84593790     0.20390
C1054       C  0.05732401  0.80911752  0.84154828     0.25430
C1055       C  0.03880401  0.79476739  0.87310994    -0.22570
C1056       C  0.05170815  0.80557774  0.90921898     0.20330
F1057       F  0.03715016  0.78919415  0.94030484    -0.12520
F1058       F  0.09098931  0.84322423  0.94924409    -0.14890
F1059       F  0.04754328  0.79657415  0.80645931    -0.14890
F1060       F  0.10453301  0.84786780  0.81460592    -0.12520
C1061       C  0.17423929  0.58564134  0.58521797     0.25490
C1062       C  0.14714825  0.61474063  0.59177239    -0.22620
C1063       C  0.15000242  0.64539276  0.56701062     0.20390
C1064       C  0.18198121  0.65082201  0.54468462     0.25430
C1065       C  0.20531023  0.62071040  0.53521123    -0.22570
C1066       C  0.20107142  0.58786172  0.55590970     0.20330
F1067       F  0.22049552  0.55669570  0.54593871    -0.12520
F1068       F  0.17099901  0.55217485  0.60246275    -0.14890
F1069       F  0.18806266  0.68512032  0.53032500    -0.14890
F1070       F  0.12003216  0.66789802  0.56000429    -0.12520
C1071       C  0.18491258  0.65246245  0.95198943     0.25490
C1072       C  0.20440017  0.62070663  0.96363701    -0.22620
C1073       C  0.19398712  0.58638357  0.94646676     0.20390
C1074       C  0.16918977  0.58503771  0.91529968     0.25430
C1075       C  0.14528837  0.61606396  0.90691057    -0.22570
C1076       C  0.15157859  0.64828452  0.93038403     0.20330
F1077       F  0.12379887  0.67353488  0.93725286    -0.12520
F1078       F  0.19573467  0.68720446  0.96396560    -0.14890
F1079       F  0.16418847  0.55118475  0.89781483    -0.14890
F1080       F  0.20643665  0.55372224  0.96083487    -0.12520
C1081       C  0.41141800  0.67045254  0.64989222     0.25490
C1082       C  0.40681359  0.65147540  0.61461607    -0.22620
C1083       C  0.42183272  0.67020295  0.58289152     0.20390
C1084       C  0.45173717  0.69628604  0.58757438     0.25430
C1085       C  0.46135440  0.71018979  0.62361721    -0.22570
C1086       C  0.43707579  0.70107920  0.65371093     0.20330
F1087       F  0.44308388  0.71706123  0.68825204    -0.12520
F1088       F  0.39211852  0.65917714  0.68083852    -0.14890
F1089       F  0.47308759  0.70569118  0.55725256    -0.14890
F1090       F  0.41116160  0.65976851  0.54732223    -0.12520
C1091       C  0.32826840  0.58178826  0.57619956     0.25490
C1092       C  0.34725434  0.61443555  0.59067207    -0.22620
C1093       C  0.32878054  0.64889600  0.58390211     0.20390
C1094       C  0.29885572  0.65067269  0.55753499     0.25430
C1095       C  0.28868103  0.61899698  0.53554913    -0.22570
C1096       C  0.30249314  0.58418888  0.54623221     0.20330
F1097       F  0.29200226  0.55251138  0.52692828    -0.12520
F1098       F  0.33539374  0.54738656  0.59000107    -0.14890
F1099       F  0.28121488  0.68375027  0.55216454    -0.14890
F1100       F  0.33887907  0.68092140  0.60272477    -0.12520
C1101       C  0.42352227  0.55381993  0.69288245     0.25490
C1102       C  0.38975972  0.53995309  0.70908353    -0.22620
C1103       C  0.35479000  0.55464954  0.69717880     0.20390
C1104       C  0.35332780  0.57986785  0.66717995     0.25430
C1105       C  0.38708378  0.59034168  0.64764368    -0.22570
C1106       C  0.42226948  0.57913103  0.66341346     0.20330
F1107       F  0.45592460  0.59081851  0.64853542    -0.12520
F1108       F  0.45809474  0.54138168  0.70409550    -0.14890
F1109       F  0.31872835  0.59341187  0.65746556    -0.14890
F1110       F  0.32169376  0.54294283  0.71324662    -0.12520
C1111       C  0.41117325  0.67523452  0.85398567     0.25490
C1112       C  0.41378412  0.65394192  0.88721745    -0.22620
C1113       C  0.43630837  0.67073991  0.91693812     0.20390
C1114       C  0.46335706  0.69843555  0.90982233     0.25430
C1115       C  0.46618531  0.71371486  0.87417084    -0.22570
C1116       C  0.43754373  0.70470673  0.84732497     0.20330
F1117       F  0.43781112  0.72142851  0.81333008    -0.12520
F1118       F  0.38495327  0.66601952  0.82700369    -0.14890
F1119       F  0.48792676  0.70949919  0.93771747    -0.14890
F1120       F  0.43103698  0.66197612  0.95371892    -0.12520
C1121       C  0.31706006  0.65786433  0.96404147     0.25490
C1122       C  0.29078271  0.62783663  0.96493862    -0.22620
C1123       C  0.29004726  0.60341531  0.93339814     0.20390
C1124       C  0.31536008  0.60898255  0.90359488     0.25430
C1125       C  0.34967105  0.62939205  0.90964535    -0.22570
C1126       C  0.34637356  0.65845482  0.93740651     0.20330
F1127       F  0.36732922  0.69048817  0.93612594    -0.12520
F1128       F  0.31458440  0.68708326  0.98869459    -0.14890
F1129       F  0.30420247  0.59724393  0.86865384    -0.14890
F1130       F  0.26756823  0.57253563  0.93181743    -0.12520
C1131       C  0.35944692  0.53448412  0.82463741     0.25490
C1132       C  0.38580647  0.53608763  0.79510977    -0.22620
C1133       C  0.41470776  0.56383539  0.79782960     0.20390
C1134       C  0.41550794  0.59023350  0.82800901     0.25430
C1135       C  0.38770139  0.58960299  0.85732333    -0.22570
C1136       C  0.36380310  0.55699822  0.85671217     0.20330
F1137       F  0.34534572  0.54463758  0.88771928    -0.12520
F1138       F  0.33069780  0.50869259  0.82438103    -0.14890
F1139       F  0.44701833  0.61243252  0.83093942    -0.14890
F1140       F  0.44455343  0.56329483  0.77367326    -0.12520
C1141       C  0.20437315  0.90906862  0.55159698     0.25490
C1142       C  0.21218507  0.87485134  0.53370573    -0.22620
C1143       C  0.18997206  0.84335985  0.54322543     0.20390
C1144       C  0.15856518  0.84660507  0.56767368     0.25430
C1145       C  0.14833155  0.88194319  0.58339897    -0.22570
C1146       C  0.17365171  0.91255775  0.57616834     0.20330
F1147       F  0.16818539  0.94697150  0.59196965    -0.12520
F1148       F  0.22427967  0.94044917  0.54287726    -0.14890
F1149       F  0.13749410  0.81517539  0.57365258    -0.14890
F1150       F  0.19721270  0.80957050  0.52692357    -0.12520
C1151       C  0.19875632  0.84640099  0.94412045     0.25490
C1152       C  0.21312503  0.87802957  0.96351133    -0.22620
C1153       C  0.20225869  0.91355144  0.95198483     0.20390
C1154       C  0.17504540  0.91732662  0.92381887     0.25430
C1155       C  0.15421237  0.88571255  0.90961341    -0.22570
C1156       C  0.16982841  0.85001739  0.91713393     0.20330
F1157       F  0.15784593  0.81845005  0.89855162    -0.12520
F1158       F  0.21169132  0.81185158  0.95229907    -0.14890
F1159       F  0.16943464  0.95220857  0.91052602    -0.14890
F1160       F  0.21657214  0.94494336  0.96913482    -0.12520
C1161       C  0.42792928  0.93132403  0.66193296     0.25490
C1162       C  0.39370386  0.91587303  0.64614980    -0.22620
C1163       C  0.35910058  0.92451580  0.66495539     0.20390
C1164       C  0.35822646  0.95270826  0.69288544     0.25430
C1165       C  0.39212952  0.96974424  0.70627335    -0.22570
C1166       C  0.42707981  0.95697392  0.69219524     0.20330
F1167       F  0.46056877  0.97008708  0.70696225    -0.12520
F1168       F  0.46249558  0.92160008  0.64784319    -0.14890
F1169       F  0.32386961  0.96439146  0.70574763    -0.14890
F1170       F  0.32571402  0.90658236  0.65622769    -0.12520
C1171       C  0.42684930  0.82990882  0.58537860     0.25490
C1172       C  0.41693106  0.85352269  0.61635126    -0.22620
C1173       C  0.42860635  0.84130580  0.65262615     0.20390
C1174       C  0.45442734  0.81175392  0.65649399     0.25430
C1175       C  0.46675057  0.79094273  0.62508327    -0.22570
C1176       C  0.45012205  0.79864960  0.58991997     0.20330
F1177       F  0.45729909  0.77691679  0.55920481    -0.12520
F1178       F  0.41437553  0.83737638  0.55005120    -0.14890
F1179       F  0.46828114  0.80399982  0.69120927    -0.14890
F1180       F  0.41570245  0.85757997  0.68486260    -0.12520
C1181       C  0.33463711  0.91728394  0.57783548     0.25490
C1182       C  0.35531339  0.88564487  0.59004878    -0.22620
C1183       C  0.33914290  0.85013862  0.57977033     0.20390
C1184       C  0.31108489  0.84700375  0.55125301     0.25430
C1185       C  0.29752781  0.87906267  0.53357324    -0.22570
C1186       C  0.30845599  0.91418988  0.54828594     0.20330
F1187       F  0.29544695  0.94603464  0.53289813    -0.12520
F1188       F  0.34093410  0.95199226  0.59307755    -0.14890
F1189       F  0.29834870  0.81256607  0.53984114    -0.14890
F1190       F  0.35001173  0.81836371  0.59686359    -0.12520
C1191       C  0.31096289  0.84620968  0.94469605     0.25490
C1192       C  0.29627764  0.87860651  0.96188220    -0.22620
C1193       C  0.30392475  0.91315396  0.94504809     0.20390
C1194       C  0.32931796  0.91563504  0.91478953     0.25430
C1195       C  0.35117601  0.88431743  0.90320396    -0.22570
C1196       C  0.33716129  0.84883033  0.91483712     0.20330
F1197       F  0.34902637  0.81651843  0.89832564    -0.12520
F1198       F  0.30109501  0.81198709  0.95780729    -0.14890
F1199       F  0.33487511  0.94965357  0.89908628    -0.14890
F1200       F  0.28871056  0.94511535  0.95905981    -0.12520
C1201       C  0.35864543  0.91806224  0.82564461     0.25490
C1202       C  0.39147800  0.91385728  0.84850427    -0.22620
C1203       C  0.42581636  0.93156148  0.83617553     0.20390
C1204       C  0.42539454  0.95789734  0.80758381     0.25430
C1205       C  0.39140569  0.96582969  0.78870161    -0.22570
C1206       C  0.35877221  0.94360107  0.79597971     0.20330
F1207       F  0.32565304  0.94946896  0.77723198    -0.12520
F1208       F  0.32613757  0.89808470  0.83204509    -0.14890
F1209       F  0.45790119  0.97747596  0.79988514    -0.14890
F1210       F  0.45987135  0.92461698  0.85290927    -0.12520
C1211       C  0.45331526  0.81127854  0.84014650     0.25490
C1212       C  0.46787182  0.79411417  0.87221085    -0.22620
C1213       C  0.45192608  0.80308184  0.90735181     0.20390
C1214       C  0.42540658  0.83189657  0.91089237     0.25430
C1215       C  0.41404626  0.85309340  0.87924009    -0.22570
C1216       C  0.42613181  0.83961097  0.84330492     0.20330
F1217       F  0.41246391  0.85367842  0.81079278    -0.12520
F1218       F  0.46663624  0.80154423  0.80552119    -0.14890
F1219       F  0.41238085  0.84047400  0.94599049    -0.14890
F1220       F  0.46315184  0.78513372  0.93873994    -0.12520
N1221       N  0.54535947  0.07434154  0.04012826    -0.04230
N1222       N  0.55330396  0.09986088  0.06644905    -0.56350
N1223       N  0.56922167  0.04883857  0.45384836    -0.03910
N1224       N  0.59469374  0.05640389  0.42811319    -0.58470
N1225       N  0.54329302  0.07508135  0.45505335    -0.03500
N1226       N  0.55100495  0.10139261  0.43026639    -0.56320
N1227       N  0.57174811  0.04855014  0.03890263    -0.03180
N1228       N  0.59813333  0.05576094  0.06437962    -0.58830
C1229       C  0.58632784  0.08769537  0.08146746     0.97950
C1230       C  0.58338005  0.08918625  0.41356566     0.97730
N1231       N  0.54575493  0.43406413  0.45059052    -0.04410
N1232       N  0.55523997  0.40635668  0.42754248    -0.56920
N1233       N  0.57468922  0.46001436  0.03794852    -0.02530
N1234       N  0.60072628  0.45032125  0.06326297    -0.58180
N1235       N  0.54810742  0.43402466  0.03533913    -0.04440
N1236       N  0.55601220  0.40664898  0.05755591    -0.57190
N1237       N  0.57248286  0.46020179  0.45115001    -0.02170
N1238       N  0.60044780  0.45063085  0.42821026    -0.58260
Mn1239     Mn  0.57311014  0.50461038  0.99551039     1.18440
C1240       C  0.58994094  0.41651532  0.41390694     1.00030
C1241       C  0.58826365  0.41628818  0.07577804     1.00700
N1242       N  0.95422885  0.07166785  0.45671543    -0.04460
N1243       N  0.94702605  0.09816522  0.43281553    -0.60770
N1244       N  0.92976600  0.04539061  0.04373449    -0.03260
N1245       N  0.90289864  0.05366951  0.06830109    -0.61440
N1246       N  0.95573193  0.07224533  0.04322122    -0.03970
N1247       N  0.94680422  0.09909140  0.06754076    -0.61040
N1248       N  0.92527551  0.04804761  0.45852678    -0.02860
N1249       N  0.89676637  0.05992416  0.43730328    -0.61730
Mn1250     Mn  0.49958589  0.07417019  0.99877202     1.10660
C1251       C  0.91057108  0.09193541  0.42166319     1.01250
C1252       C  0.91304380  0.08778044  0.08265514     1.01330
N1253       N  0.95881841  0.43105871  0.03910527    -0.03980
N1254       N  0.95186542  0.40427815  0.06355530    -0.59350
N1255       N  0.92884039  0.45750442  0.45458344    -0.03290
N1256       N  0.90196559  0.44776297  0.42998850    -0.56080
N1257       N  0.95622545  0.43271060  0.45357370    -0.04610
N1258       N  0.94849138  0.40588680  0.42875678    -0.58920
N1259       N  0.93241758  0.45676863  0.04122210    -0.03590
N1260       N  0.90759411  0.44816390  0.06752235    -0.56100
Mn1261     Mn  0.00213041  0.43251566  0.49449250     1.20190
Mn1262     Mn  0.92779914  0.00170411  0.49944479     1.10090
Cl1263     Cl  0.50056304  0.00330414  0.99692880    -0.84070
C1264       C  0.91924725  0.41496218  0.08103675     0.98260
C1265       C  0.91419224  0.41504006  0.41435196     0.98060
C1266       C  0.89174291  0.39064475  0.38524583    -0.00600
C1267       C  0.89567027  0.39146802  0.10935846    -0.00600
C1268       C  0.77455368  0.37638919  0.49816034     0.02460
C1269       C  0.73563315  0.37435680  0.49858966     0.02450
C1270       C  0.88961356  0.11680570  0.39310909    -0.00600
C1271       C  0.88858070  0.00247475  0.26896240     0.02460
C1272       C  0.89061874  0.00430421  0.23052611     0.02450
C1273       C  0.88762358  0.11170078  0.10970795    -0.00600
C1274       C  0.72773076  0.12152648  0.49927302     0.02460
C1275       C  0.76682543  0.12222465  0.49952756     0.02450
C1276       C  0.61553828  0.39114382  0.38858761    -0.00600
C1277       C  0.50284485  0.23366251  0.36477600     0.02460
C1278       C  0.50365115  0.27178554  0.36915314     0.02450
C1279       C  0.60703390  0.10914399  0.38396410    -0.00600
C1280       C  0.62508238  0.49439957  0.26636348     0.02460
C1281       C  0.62112701  0.49323260  0.22846252     0.02450
C1282       C  0.60884375  0.10647033  0.11306615    -0.00600
C1283       C  0.60926941  0.38958310  0.10326321    -0.00600
C1284       C  0.50189549  0.26696347  0.12838092     0.02460
C1285       C  0.49983372  0.22868086  0.13018124     0.02450
C1286       C  0.54470544  0.30248981  0.08720225     0.25490
C1287       C  0.53799400  0.28838028  0.12288887    -0.22620
C1288       C  0.56175868  0.30215955  0.15239217     0.20390
C1289       C  0.58867641  0.33125203  0.14482831     0.25430
C1290       C  0.58506070  0.35240870  0.11106072    -0.22570
C1291       C  0.55493746  0.33968323  0.08697127     0.20330
F1292       F  0.52202983  0.35948564  0.08845261    -0.12580
F1293       F  0.52699964  0.28751135  0.05637162    -0.14890
F1294       F  0.61540515  0.34019919  0.17135366    -0.14890
F1295       F  0.55944573  0.28739478  0.18723993    -0.12520
C1296       C  0.52518132  0.16635961  0.15069292     0.25490
C1297       C  0.53354328  0.20190051  0.13588653    -0.22620
C1298       C  0.57285053  0.20750422  0.12609371     0.20390
C1299       C  0.59924510  0.17825158  0.12919810     0.25430
C1300       C  0.58603810  0.14080881  0.12929395    -0.22570
C1301       C  0.54878259  0.13616454  0.14406630     0.20330
F1302       F  0.53353310  0.10266347  0.15249099    -0.12520
F1303       F  0.49368680  0.15947137  0.17143716    -0.14890
F1304       F  0.63715408  0.18680103  0.12866300    -0.14890
F1305       F  0.58696473  0.23883883  0.11055661    -0.12520
C1306       C  0.58289595  0.44326436  0.19360507     0.25490
C1307       C  0.61846245  0.45721440  0.20658040    -0.22620
C1308       C  0.65162027  0.44173776  0.19142036     0.20390
C1309       C  0.64918284  0.41640570  0.16091643     0.25430
C1310       C  0.61379426  0.41042443  0.14161838    -0.22570
C1311       C  0.58049897  0.42228709  0.16030381     0.20330
F1312       F  0.54528594  0.41359880  0.14622402    -0.12520
F1313       F  0.55000739  0.45095405  0.21189242    -0.14890
F1314       F  0.68144507  0.39825439  0.15078312    -0.14890
F1315       F  0.68642274  0.45201314  0.20546108    -0.12520
C1316       C  0.64770789  0.05206764  0.19834212     0.25490
C1317       C  0.61687287  0.02760701  0.20591012    -0.22620
C1318       C  0.58350638  0.03114049  0.18498180     0.20390
C1319       C  0.58397294  0.05054965  0.15194710     0.25430
C1320       C  0.61282367  0.07811385  0.14534581    -0.22570
C1321       C  0.64387342  0.07986183  0.17105166     0.20330
F1322       F  0.67214346  0.10593722  0.16749458    -0.12520
F1323       F  0.68194700  0.04792852  0.21548016    -0.14890
F1324       F  0.55425701  0.04311566  0.12806356    -0.14890
F1325       F  0.55013869  0.01519264  0.19568199    -0.12520
C1326       C  0.64540283  0.08157575  0.32737957     0.25490
C1327       C  0.61201175  0.08150566  0.34992112    -0.22620
C1328       C  0.58285039  0.05497509  0.33967119     0.20390
C1329       C  0.58496868  0.03440645  0.30654576     0.25430
C1330       C  0.62002818  0.02955517  0.28885417    -0.22570
C1331       C  0.65078894  0.05313982  0.29994909     0.20330
F1332       F  0.68629016  0.04762328  0.28601602    -0.12520
F1333       F  0.67421626  0.10664177  0.33416757    -0.14890
F1334       F  0.55282190  0.01703195  0.29355285    -0.14890
F1335       F  0.55183675  0.04762861  0.36139605    -0.12520
C1336       C  0.54860013  0.14077559  0.35186631     0.25490
C1337       C  0.58539698  0.14433239  0.36866821    -0.22620
C1338       C  0.60051979  0.18132222  0.36858356     0.20390
C1339       C  0.57575270  0.21227044  0.36863070     0.25430
C1340       C  0.53668274  0.20742057  0.35782649    -0.22570
C1341       C  0.52753742  0.17191223  0.34252879     0.20330
F1342       F  0.49682633  0.16660480  0.31967952    -0.12520
F1343       F  0.53144760  0.10771470  0.34388141    -0.14890
F1344       F  0.59141380  0.24545614  0.37926861    -0.14890
F1345       F  0.63878197  0.18806983  0.36920611    -0.12520
C1346       C  0.65624618  0.42168445  0.33485007     0.25490
C1347       C  0.62044922  0.41201128  0.35118542    -0.22620
C1348       C  0.58707672  0.42241354  0.33168879     0.20390
C1349       C  0.58929017  0.44395660  0.29975333     0.25430
C1350       C  0.62435217  0.45966154  0.28866631    -0.22570
C1351       C  0.65796460  0.44705197  0.30529407     0.20330
F1352       F  0.69244424  0.46012789  0.29355232    -0.12520
F1353       F  0.68967526  0.40751255  0.34720727    -0.14890
F1354       F  0.55643622  0.45087194  0.28122951    -0.14890
F1355       F  0.55181435  0.41162021  0.34364128    -0.12520
C1356       C  0.57966041  0.33345998  0.41369139     0.25490
C1357       C  0.59389371  0.35296333  0.38214677    -0.22620
C1358       C  0.58566230  0.33693216  0.34594187     0.20390
C1359       C  0.55732658  0.30911282  0.34155356     0.25430
C1360       C  0.53880578  0.29476483  0.37311582    -0.22570
C1361       C  0.55170921  0.30557762  0.40922443     0.20330
F1362       F  0.53715054  0.28919615  0.44031115    -0.12520
F1363       F  0.59099175  0.34322451  0.44924779    -0.14890
F1364       F  0.54754645  0.29656725  0.30646518    -0.14890
F1365       F  0.60453482  0.34786296  0.31460939    -0.12520
C1366       C  0.67423661  0.08564077  0.08521717     0.25490
C1367       C  0.64714616  0.11474048  0.09177208    -0.22620
C1368       C  0.65000147  0.14539332  0.06701129     0.20390
C1369       C  0.68198101  0.15082267  0.04468631     0.25430
C1370       C  0.70530889  0.12071058  0.03521176    -0.22570
C1371       C  0.70106894  0.08786128  0.05590906     0.20330
F1372       F  0.72049221  0.05669503  0.04593718    -0.12520
F1373       F  0.67099553  0.05217397  0.10246126    -0.14890
F1374       F  0.68806440  0.18512160  0.03032879    -0.14890
F1375       F  0.62003179  0.16789929  0.06000484    -0.12520
C1376       C  0.68491064  0.15245899  0.45199354     0.25490
C1377       C  0.70440230  0.12070437  0.46363795    -0.22620
C1378       C  0.69399165  0.08638148  0.44646562     0.20390
C1379       C  0.66919351  0.08503549  0.41529891     0.25430
C1380       C  0.64529057  0.11606097  0.40691098    -0.22570
C1381       C  0.65157701  0.14827941  0.43038814     0.20330
F1382       F  0.62379410  0.17352576  0.43725978    -0.12520
F1383       F  0.69572819  0.18720117  0.46397278    -0.14890
F1384       F  0.66419267  0.05118262  0.39781378    -0.14890
F1385       F  0.70643995  0.05371995  0.46083416    -0.12520
C1386       C  0.91141709  0.17045414  0.14989153     0.25490
C1387       C  0.90681294  0.15147720  0.11461525    -0.22620
C1388       C  0.92183250  0.17020481  0.08289093     0.20390
C1389       C  0.95173711  0.19628761  0.08757419     0.25430
C1390       C  0.96135409  0.21019100  0.12361719    -0.22570
C1391       C  0.93707514  0.20108050  0.15371064     0.20330
F1392       F  0.94308292  0.21706244  0.18825184    -0.12520
F1393       F  0.89211704  0.15917885  0.18083752    -0.14890
F1394       F  0.97308784  0.20569286  0.05725263    -0.14890
F1395       F  0.91116139  0.15977090  0.04732148    -0.12520
C1396       C  0.82826635  0.08179118  0.07619966     0.25490
C1397       C  0.84725308  0.11443833  0.09067143    -0.22620
C1398       C  0.82878036  0.14889916  0.08390046     0.20390
C1399       C  0.79885578  0.15067606  0.05753312     0.25430
C1400       C  0.78867976  0.11899992  0.03554853    -0.22570
C1401       C  0.80249086  0.08419174  0.04623253     0.20330
F1402       F  0.79199917  0.05251404  0.02692938    -0.12520
F1403       F  0.83539152  0.04738953  0.09000137    -0.14890
F1404       F  0.78121600  0.18375402  0.05216176    -0.14890
F1405       F  0.83887978  0.18092483  0.10272220    -0.12520
C1406       C  0.92352238  0.05382070  0.19287975     0.25490
C1407       C  0.88976008  0.03995326  0.20908077    -0.22620
C1408       C  0.85479015  0.05465003  0.19717700     0.20390
C1409       C  0.85332747  0.07986917  0.16717889     0.25430
C1410       C  0.88708314  0.09034340  0.14764237    -0.22570
C1411       C  0.92226910  0.07913259  0.16341148     0.20330
F1412       F  0.95592396  0.09082065  0.14853333    -0.12520
F1413       F  0.95809501  0.04138219  0.20409200    -0.14890
F1414       F  0.81872792  0.09341356  0.15746537    -0.14890
F1415       F  0.82169417  0.04294300  0.21324509    -0.12520
C1416       C  0.91117587  0.17523138  0.35398430     0.25490
C1417       C  0.91378308  0.15393923  0.38721661    -0.22620
C1418       C  0.93630248  0.17073852  0.41693993     0.20390
C1419       C  0.96335313  0.19843326  0.40982664     0.25430
C1420       C  0.96618610  0.21371158  0.37417493    -0.22570
C1421       C  0.93754711  0.20470358  0.34732626     0.20330
F1422       F  0.93781798  0.22142537  0.31333139    -0.12520
F1423       F  0.88495875  0.16601624  0.32699968    -0.14890
F1424       F  0.98791952  0.20949717  0.43772446    -0.14890
F1425       F  0.93102506  0.16197518  0.45372001    -0.12520
C1426       C  0.81705471  0.15786690  0.46403126     0.25490
C1427       C  0.79078381  0.12783428  0.46493714    -0.22620
C1428       C  0.79005245  0.10340406  0.43340413     0.20390
C1429       C  0.81536163  0.10896899  0.40359788     0.25430
C1430       C  0.84966842  0.12938770  0.40963995    -0.22570
C1431       C  0.84636663  0.15845669  0.43739416     0.20330
F1432       F  0.86731742  0.19049271  0.43610532    -0.12520
F1433       F  0.81457458  0.18709043  0.48867832    -0.14890
F1434       F  0.80419941  0.09722656  0.36865946    -0.14890
F1435       F  0.76757962  0.07251969  0.43183355    -0.12520
C1436       C  0.85944933  0.03448259  0.32463301     0.25490
C1437       C  0.88580928  0.03608674  0.29510606    -0.22620
C1438       C  0.91471104  0.06383401  0.29782712     0.20390
C1439       C  0.91551074  0.09023145  0.32800722     0.25430
C1440       C  0.88770358  0.08959982  0.35732102    -0.22570
C1441       C  0.86380684  0.05699406  0.35670907     0.20330
F1442       F  0.84535321  0.04462895  0.38771646    -0.12520
F1443       F  0.83069943  0.00869187  0.32437521    -0.14890
F1444       F  0.94702124  0.11243034  0.33093901    -0.14890
F1445       F  0.94455715  0.06329367  0.27367127    -0.12520
C1446       C  0.70437183  0.40907002  0.05159772     0.25490
C1447       C  0.71218381  0.37485271  0.03370661    -0.22620
C1448       C  0.68997092  0.34336117  0.04322626     0.20390
C1449       C  0.65856401  0.34660635  0.06767438     0.25430
C1450       C  0.64833028  0.38194449  0.08339952    -0.22570
C1451       C  0.67365037  0.41255912  0.07616896     0.20330
F1452       F  0.66818407  0.44697283  0.09197037    -0.12520
F1453       F  0.72427833  0.44045057  0.04287801    -0.14890
F1454       F  0.63749309  0.31517659  0.07365335    -0.14890
F1455       F  0.69721169  0.30957183  0.02692442    -0.12520
C1456       C  0.69875900  0.34639940  0.44412256     0.25490
C1457       C  0.71312803  0.37802817  0.46351295    -0.22620
C1458       C  0.70226167  0.41354989  0.45198595     0.20390
C1459       C  0.67504820  0.41732481  0.42382002     0.25430
C1460       C  0.65421498  0.38571066  0.40961501    -0.22570
C1461       C  0.66983091  0.35001555  0.41713610     0.20330
F1462       F  0.65784812  0.31844795  0.39855442    -0.12520
F1463       F  0.71169386  0.31185004  0.45230159    -0.14890
F1464       F  0.66943740  0.45220660  0.41052681    -0.14890
F1465       F  0.71657528  0.44494200  0.46913545    -0.12520
C1466       C  0.92792837  0.43132364  0.16193385     0.25490
C1467       C  0.89370291  0.41587288  0.14615055    -0.22620
C1468       C  0.85909969  0.42451516  0.16495646     0.20390
C1469       C  0.85822562  0.45270702  0.19288710     0.25430
C1470       C  0.89212870  0.46974287  0.20627511    -0.22570
C1471       C  0.92707896  0.45697293  0.19219662     0.20330
F1472       F  0.96056794  0.47008599  0.20696370    -0.12520
F1473       F  0.96249464  0.42160000  0.14784377    -0.14890
F1474       F  0.82386880  0.46438972  0.20574984    -0.14890
F1475       F  0.82571315  0.40658176  0.15622861    -0.12520
C1476       C  0.92684897  0.32990969  0.08537852     0.25490
C1477       C  0.91693027  0.35352305  0.11635141    -0.22620
C1478       C  0.92860524  0.34130575  0.15262624     0.20390
C1479       C  0.95442651  0.31175413  0.15649392     0.25430
C1480       C  0.96675045  0.29094366  0.12508301    -0.22570
C1481       C  0.95012229  0.29865086  0.08991962     0.20330
F1482       F  0.95730009  0.27691869  0.05920420    -0.12520
F1483       F  0.91437517  0.33737746  0.05005117    -0.14890
F1484       F  0.96827987  0.30399955  0.19120925    -0.14890
F1485       F  0.91570065  0.35757922  0.18486276    -0.12520
C1486       C  0.83463586  0.41728416  0.07783664     0.25490
C1487       C  0.85531239  0.38564507  0.09004948    -0.22620
C1488       C  0.83914209  0.35013881  0.07977083     0.20390
C1489       C  0.81108381  0.34700404  0.05125380     0.25430
C1490       C  0.79752641  0.37906305  0.03357445    -0.22570
C1491       C  0.80845458  0.41419021  0.04828727     0.20330
F1492       F  0.79544555  0.44603503  0.03289958    -0.12520
F1493       F  0.84093286  0.45199239  0.09307890    -0.14890
F1494       F  0.79834771  0.31256639  0.03984175    -0.14890
F1495       F  0.85001137  0.31836378  0.09686359    -0.12520
C1496       C  0.81096564  0.34620825  0.44469777     0.25490
C1497       C  0.79628074  0.37860520  0.46188397    -0.22620
C1498       C  0.80392787  0.41315259  0.44504979     0.20390
C1499       C  0.82932104  0.41563353  0.41479121     0.25430
C1500       C  0.85117897  0.38431583  0.40320582    -0.22570
C1501       C  0.83716390  0.34882877  0.41483875     0.20330
F1502       F  0.84902863  0.31651683  0.39832706    -0.12520
F1503       F  0.80109758  0.31198571  0.45780902    -0.14890
F1504       F  0.83487832  0.44965197  0.39908781    -0.14890
F1505       F  0.78871378  0.44511405  0.45906143    -0.12520
C1506       C  0.85864817  0.41805923  0.32564621     0.25490
C1507       C  0.89148085  0.41385493  0.34850590    -0.22620
C1508       C  0.92581883  0.43155974  0.33617709     0.20390
C1509       C  0.92539638  0.45789570  0.30758542     0.25430
C1510       C  0.89140726  0.46582757  0.28870337    -0.22570
C1511       C  0.85877428  0.44359825  0.29598146     0.20330
F1512       F  0.82565484  0.44946578  0.27723407    -0.12520
F1513       F  0.82614074  0.39808099  0.33204666    -0.14890
F1514       F  0.95790262  0.47747498  0.29988676    -0.14890
F1515       F  0.95987398  0.42461588  0.35291082    -0.12520
C1516       C  0.95331827  0.31127540  0.34015127     0.25490
C1517       C  0.96787363  0.29411130  0.37221631    -0.22620
C1518       C  0.95192730  0.30307980  0.40735673     0.20390
C1519       C  0.92540834  0.33189505  0.41089614     0.25430
C1520       C  0.91404911  0.35309147  0.37924316    -0.22570
C1521       C  0.92613538  0.33960842  0.34330852     0.20330
F1522       F  0.91246883  0.35367583  0.31079582    -0.12520
F1523       F  0.96664006  0.30154034  0.30552648    -0.14890
F1524       F  0.91238216  0.34047345  0.44599387    -0.14890
F1525       F  0.96315220  0.28513219  0.43874547    -0.12520
N1526       N  0.54536183  0.07434055  0.54012787    -0.04230
N1527       N  0.55330650  0.09986028  0.56644822    -0.56350
N1528       N  0.56921964  0.04884009  0.95384838    -0.03910
N1529       N  0.59469150  0.05640530  0.92811296    -0.58470
N1530       N  0.54329109  0.07508296  0.95505353    -0.03500
N1531       N  0.55100292  0.10139417  0.93026647    -0.56320
N1532       N  0.57175048  0.04854916  0.53890239    -0.03180
N1533       N  0.59813592  0.05576039  0.56437905    -0.58830
C1534       C  0.58633052  0.08769504  0.58146655     0.97950
C1535       C  0.58337785  0.08918770  0.91356547     0.97730
N1536       N  0.54575291  0.43406554  0.95059016    -0.04410
N1537       N  0.55523808  0.40635810  0.92754215    -0.56920
N1538       N  0.57469153  0.46001333  0.53794883    -0.02530
N1539       N  0.60072867  0.45032046  0.56326329    -0.58180
N1540       N  0.54810991  0.43402344  0.53533943    -0.04440
N1541       N  0.55601501  0.40664777  0.55755610    -0.57190
N1542       N  0.57248078  0.46020325  0.95114973    -0.02170
N1543       N  0.60044580  0.45063237  0.92821006    -0.58260
Mn1544     Mn  0.57311229  0.50460915  0.49551054     1.18440
C1545       C  0.58993905  0.41651683  0.91390672     1.00030
C1546       C  0.58826632  0.41628732  0.57577838     1.00700
N1547       N  0.95422711  0.07166909  0.95671513    -0.04460
N1548       N  0.94702461  0.09816653  0.93281526    -0.60770
N1549       N  0.92976835  0.04538967  0.54373495    -0.03260
N1550       N  0.90290106  0.05366886  0.56830154    -0.61440
N1551       N  0.95573439  0.07224428  0.54322147    -0.03970
N1552       N  0.94680690  0.09909050  0.56754090    -0.61040
N1553       N  0.92527362  0.04804899  0.95852631    -0.02860
N1554       N  0.89676462  0.05992584  0.93730279    -0.61730
Mn1555     Mn  0.49958801  0.07416890  0.49877198     1.10660
C1556       C  0.91056962  0.09193711  0.92166294     1.01250
C1557       C  0.91304645  0.08777983  0.58265539     1.01330
N1558       N  0.95882065  0.43105765  0.53910613    -0.03980
N1559       N  0.95186759  0.40427732  0.56355643    -0.59350
N1560       N  0.92883837  0.45750574  0.95458277    -0.03290
N1561       N  0.90196344  0.44776403  0.92998809    -0.56080
N1562       N  0.95622348  0.43271198  0.95357305    -0.04610
N1563       N  0.94848933  0.40588796  0.92875641    -0.58920
N1564       N  0.93241995  0.45676771  0.54122290    -0.03590
N1565       N  0.90759657  0.44816336  0.56752335    -0.56100
Mn1566     Mn  0.00212824  0.43251700  0.99449197     1.20190
Mn1567     Mn  0.92779696  0.00170529  0.99944418     1.10090
Cl1568     Cl  0.50056523  0.00330282  0.49692911    -0.84070
C1569       C  0.91924954  0.41496169  0.58103798     0.98260
C1570       C  0.91419008  0.41504104  0.91435174     0.98060
C1571       C  0.89174075  0.39064561  0.88524575    -0.00600
C1572       C  0.89567225  0.39146782  0.60935971    -0.00600
C1573       C  0.77455138  0.37639004  0.99816006     0.02460
C1574       C  0.73563089  0.37435796  0.99858932     0.02450
C1575       C  0.88961213  0.11680794  0.89310939    -0.00600
C1576       C  0.88857899  0.00247607  0.76896309     0.02460
C1577       C  0.89061870  0.00430512  0.73052683     0.02450
C1578       C  0.88762631  0.11170062  0.60970786    -0.00600
C1579       C  0.72772819  0.12152764  0.99927286     0.02460
C1580       C  0.76682293  0.12222539  0.99952761     0.02450
C1581       C  0.61553647  0.39114547  0.88858739    -0.00600
C1582       C  0.50284345  0.23366429  0.86477409     0.02460
C1583       C  0.50364974  0.27178723  0.86915184     0.02450
C1584       C  0.60703175  0.10914556  0.88396389    -0.00600
C1585       C  0.62508174  0.49440110  0.76636355     0.02460
C1586       C  0.62112837  0.49323368  0.72846246     0.02450
C1587       C  0.60884618  0.10647014  0.61306534    -0.00600
C1588       C  0.60927209  0.38958268  0.60326403    -0.00600
C1589       C  0.50189795  0.26696354  0.62838296     0.02460
C1590       C  0.49983629  0.22868087  0.63018227     0.02450
C1591       C  0.54470717  0.30249021  0.58720404     0.25490
C1592       C  0.53799641  0.28838034  0.62289062    -0.22620
C1593       C  0.56176185  0.30215919  0.65239358     0.20390
C1594       C  0.58867973  0.33125152  0.64482933     0.25430
C1595       C  0.58506345  0.35240839  0.61106195    -0.22570
C1596       C  0.55493934  0.33968355  0.58697336     0.20330
F1597       F  0.52203211  0.35948654  0.58845603    -0.12580
F1598       F  0.52700077  0.28751221  0.55637354    -0.14890
F1599       F  0.61540908  0.34019847  0.67135415    -0.14890
F1600       F  0.55944958  0.28739410  0.68724124    -0.12520
C1601       C  0.52518360  0.16635911  0.65069235     0.25490
C1602       C  0.53354581  0.20190037  0.63588702    -0.22620
C1603       C  0.57285314  0.20750416  0.62609448     0.20390
C1604       C  0.59924752  0.17825127  0.62919824     0.25430
C1605       C  0.58604031  0.14080853  0.62929297    -0.22570
C1606       C  0.54878455  0.13616407  0.64406464     0.20330
F1607       F  0.53353428  0.10266276  0.65248716    -0.12520
F1608       F  0.49368897  0.15947043  0.67143630    -0.14890
F1609       F  0.63715656  0.18680055  0.62866395    -0.14890
F1610       F  0.58696757  0.23883916  0.61055834    -0.12520
C1611       C  0.58289790  0.44326496  0.69360509     0.25490
C1612       C  0.61846424  0.45721528  0.70658055    -0.22620
C1613       C  0.65162224  0.44173868  0.69142081     0.20390
C1614       C  0.64918513  0.41640624  0.66091713     0.25430
C1615       C  0.61379667  0.41042446  0.64161901    -0.22570
C1616       C  0.58050123  0.42228723  0.66030411     0.20330
F1617       F  0.54528831  0.41359872  0.64622419    -0.12520
F1618       F  0.55000915  0.45095490  0.71189197    -0.14890
F1619       F  0.68144754  0.39825508  0.65078413    -0.14890
F1620       F  0.68642458  0.45201440  0.70546162    -0.12520
C1621       C  0.64770986  0.05206798  0.69834171     0.25490
C1622       C  0.61687458  0.02760777  0.70590987    -0.22620
C1623       C  0.58350817  0.03114122  0.68498148     0.20390
C1624       C  0.58397512  0.05054976  0.65194646     0.25430
C1625       C  0.61282590  0.07811388  0.64534514    -0.22570
C1626       C  0.64387563  0.07986195  0.67105104     0.20330
F1627       F  0.67214586  0.10593712  0.66749381    -0.12520
F1628       F  0.68194890  0.04792868  0.71547985    -0.14890
F1629       F  0.55425978  0.04311492  0.62806246    -0.14890
F1630       F  0.55014039  0.01519357  0.69568168    -0.12520
C1631       C  0.64540099  0.08157766  0.82737941     0.25490
C1632       C  0.61200979  0.08150738  0.84992079    -0.22620
C1633       C  0.58284856  0.05497680  0.83967057     0.20390
C1634       C  0.58496719  0.03440818  0.80654512     0.25430
C1635       C  0.62002689  0.02955691  0.78885386    -0.22570
C1636       C  0.65078740  0.05314180  0.79994892     0.20330
F1637       F  0.68628873  0.04762553  0.78601601    -0.12520
F1638       F  0.67421426  0.10664381  0.83416757    -0.14890
F1639       F  0.55282054  0.01703369  0.79355189    -0.14890
F1640       F  0.55183508  0.04762978  0.86139546    -0.12520
C1641       C  0.54859777  0.14077696  0.85186656     0.25490
C1642       C  0.58539484  0.14433388  0.86866791    -0.22620
C1643       C  0.60051811  0.18132354  0.86858189     0.20390
C1644       C  0.57575139  0.21227206  0.86862806     0.25430
C1645       C  0.53668125  0.20742220  0.85782451    -0.22570
C1646       C  0.52753551  0.17191353  0.84252788     0.20330
F1647       F  0.49682421  0.16660575  0.81967894    -0.12520
F1648       F  0.53144450  0.10771599  0.84388365    -0.14890
F1649       F  0.59141314  0.24545813  0.87926387    -0.14890
F1650       F  0.63878038  0.18807066  0.86920373    -0.12520
C1651       C  0.65624473  0.42168597  0.83485017     0.25490
C1652       C  0.62044764  0.41201307  0.85118540    -0.22620
C1653       C  0.58707525  0.42241557  0.83168875     0.20390
C1654       C  0.58928896  0.44395858  0.79975333     0.25430
C1655       C  0.62435111  0.45966330  0.78866651    -0.22570
C1656       C  0.65796342  0.44705349  0.80529426     0.20330
F1657       F  0.69244318  0.46012918  0.79355258    -0.12520
F1658       F  0.68967368  0.40751377  0.84720737    -0.14890
F1659       F  0.55643517  0.45087391  0.78122923    -0.14890
F1660       F  0.55181277  0.41162239  0.84364109    -0.12520
C1661       C  0.57965882  0.33346133  0.91369066     0.25490
C1662       C  0.59389199  0.35296503  0.88214621    -0.22620
C1663       C  0.58566058  0.33693423  0.84594115     0.20390
C1664       C  0.55732484  0.30911499  0.84155258     0.25430
C1665       C  0.53880433  0.29476646  0.87311473    -0.22570
C1666       C  0.55170795  0.30557870  0.90922343     0.20330
F1667       F  0.53714958  0.28919667  0.94030997    -0.12520
F1668       F  0.59099005  0.34322568  0.94924714    -0.14890
F1669       F  0.54754452  0.29656994  0.80646408    -0.14890
F1670       F  0.60453309  0.34786529  0.81460876    -0.12520
C1671       C  0.67423862  0.08563970  0.58521661     0.25490
C1672       C  0.64714890  0.11474004  0.59177183    -0.22620
C1673       C  0.65000554  0.14539353  0.56701201     0.20390
C1674       C  0.68198564  0.15082246  0.54468769     0.25430
C1675       C  0.70531200  0.12070959  0.53521211    -0.22570
C1676       C  0.70107093  0.08785992  0.55590853     0.20330
F1677       F  0.72049320  0.05669326  0.54593593    -0.12520
F1678       F  0.67099669  0.05217273  0.60246026    -0.14890
F1679       F  0.68807111  0.18512178  0.53033176    -0.14890
F1680       F  0.62003668  0.16790051  0.56000556    -0.12520
C1681       C  0.68490963  0.15246061  0.95199228     0.25490
C1682       C  0.70440005  0.12070564  0.96363766    -0.22620
C1683       C  0.69398869  0.08638269  0.94646596     0.20390
C1684       C  0.66919087  0.08503676  0.91529906     0.25430
C1685       C  0.64528847  0.11606249  0.90691069    -0.22570
C1686       C  0.65157589  0.14828149  0.93038690     0.20330
F1687       F  0.62379381  0.17352886  0.93725786    -0.12520
F1688       F  0.69572854  0.18720276  0.96397056    -0.14890
F1689       F  0.66418995  0.05118389  0.89781396    -0.14890
F1690       F  0.70643747  0.05372123  0.96083430    -0.12520
C1691       C  0.91141958  0.17045401  0.64989150     0.25490
C1692       C  0.90681602  0.15147686  0.61461525    -0.22620
C1693       C  0.92183612  0.17020427  0.58289105     0.20390
C1694       C  0.95174052  0.19628722  0.58757463     0.25430
C1695       C  0.96135676  0.21019098  0.62361768    -0.22570
C1696       C  0.93707748  0.20108046  0.65371085     0.20330
F1697       F  0.94308481  0.21706246  0.68825209    -0.12520
F1698       F  0.89211904  0.15917890  0.68083726    -0.14890
F1699       F  0.97309175  0.20569234  0.55725335    -0.14890
F1700       F  0.91116550  0.15977029  0.54732149    -0.12520
C1701       C  0.82826888  0.08179129  0.57619988     0.25490
C1702       C  0.84725608  0.11443848  0.59067097    -0.22620
C1703       C  0.82878409  0.14889950  0.58389909     0.20390
C1704       C  0.79885969  0.15067635  0.55753162     0.25430
C1705       C  0.78868270  0.11899976  0.53554816    -0.22570
C1706       C  0.80249313  0.08419160  0.54623297     0.20330
F1707       F  0.79200072  0.05251363  0.52693067    -0.12520
F1708       F  0.83539381  0.04738978  0.59000207    -0.14890
F1709       F  0.78122059  0.18375451  0.55215948    -0.14890
F1710       F  0.83888398  0.18092544  0.60272012    -0.12520
C1711       C  0.92352343  0.05382091  0.69288054     0.25490
C1712       C  0.88976076  0.03995394  0.70908121    -0.22620
C1713       C  0.85479115  0.05465099  0.69717696     0.20390
C1714       C  0.85332915  0.07986996  0.66717870     0.25430
C1715       C  0.88708517  0.09034352  0.64764240    -0.22570
C1716       C  0.92227080  0.07913244  0.66341195     0.20330
F1717       F  0.95592595  0.09081993  0.64853402    -0.12520
F1718       F  0.95809580  0.04138239  0.70409355    -0.14890
F1719       F  0.81872990  0.09341483  0.65746482    -0.14890
F1720       F  0.82169484  0.04294435  0.71324470    -0.12520
C1721       C  0.91117398  0.17523349  0.85398437     0.25490
C1722       C  0.91378185  0.15394130  0.88721662    -0.22620
C1723       C  0.93630261  0.17074009  0.91693927     0.20390
C1724       C  0.96335295  0.19843487  0.90982536     0.25430
C1725       C  0.96618488  0.21371338  0.87417370    -0.22570
C1726       C  0.93754525  0.20470550  0.84732568     0.20330
F1727       F  0.93781543  0.22142726  0.81333079    -0.12520
F1728       F  0.88495619  0.16601849  0.82700034    -0.14890
F1729       F  0.98792021  0.20949859  0.93772253    -0.14890
F1730       F  0.93102683  0.16197653  0.95371952    -0.12520
C1731       C  0.81705489  0.15786716  0.96403437     0.25490
C1732       C  0.79078193  0.12783610  0.96493750    -0.22620
C1733       C  0.79004921  0.10340880  0.93340202     0.20390
C1734       C  0.81535949  0.10897452  0.90359667     0.25430
C1735       C  0.84966762  0.12939031  0.90964134    -0.22570
C1736       C  0.84636720  0.15845728  0.93739780     0.20330
F1737       F  0.86731936  0.19049256  0.93611143    -0.12520
F1738       F  0.81457624  0.18708919  0.98868341    -0.14890
F1739       F  0.80419859  0.09723352  0.86865739    -0.14890
F1740       F  0.76757439  0.07252594  0.93182817    -0.12520
C1741       C  0.85944705  0.03448468  0.82463341     0.25490
C1742       C  0.88580738  0.03608830  0.79510665    -0.22620
C1743       C  0.91470920  0.06383551  0.79782774     0.20390
C1744       C  0.91550879  0.09023324  0.82800760     0.25430
C1745       C  0.88770135  0.08960222  0.85732117    -0.22570
C1746       C  0.86380392  0.05699692  0.85670915     0.20330
F1747       F  0.84534901  0.04463309  0.88771633    -0.12520
F1748       F  0.83069714  0.00869398  0.82437568    -0.14890
F1749       F  0.94701939  0.11243197  0.83093939    -0.14890
F1750       F  0.94455557  0.06329481  0.77367222    -0.12520
C1751       C  0.70437434  0.40906916  0.55159806     0.25490
C1752       C  0.71218618  0.37485175  0.53370707    -0.22620
C1753       C  0.68997335  0.34336027  0.54322710     0.20390
C1754       C  0.65856663  0.34660563  0.56767545     0.25430
C1755       C  0.64833302  0.38194386  0.58340048    -0.22570
C1756       C  0.67365306  0.41255842  0.57616953     0.20330
F1757       F  0.66818674  0.44697227  0.59197062    -0.12520
F1758       F  0.72428074  0.44044966  0.54287796    -0.14890
F1759       F  0.63749568  0.31517593  0.57365469    -0.14890
F1760       F  0.69721399  0.30957083  0.52692543    -0.12520
C1761       C  0.69875716  0.34640091  0.94412195     0.25490
C1762       C  0.71312596  0.37802957  0.96351263    -0.22620
C1763       C  0.70225957  0.41355138  0.95198592     0.20390
C1764       C  0.67504617  0.41732641  0.92382000     0.25430
C1765       C  0.65421305  0.38571229  0.90961481    -0.22570
C1766       C  0.66982912  0.35001717  0.91713553     0.20330
F1767       F  0.65784651  0.31844970  0.89855351    -0.12520
F1768       F  0.71169218  0.31185154  0.95230070    -0.14890
F1769       F  0.66943541  0.45220827  0.91052693    -0.14890
F1770       F  0.71657309  0.44494340  0.96913567    -0.12520
C1771       C  0.92792957  0.43132416  0.66193523     0.25490
C1772       C  0.89370440  0.41587303  0.64615166    -0.22620
C1773       C  0.85910092  0.42451531  0.66495716     0.20390
C1774       C  0.85822638  0.45270735  0.69288767     0.25430
C1775       C  0.89212919  0.46974350  0.70627602    -0.22570
C1776       C  0.92707968  0.45697359  0.69219793     0.20330
F1777       F  0.96056845  0.47008666  0.70696547    -0.12520
F1778       F  0.96249605  0.42160065  0.64784559    -0.14890
F1779       F  0.82386934  0.46438994  0.70574995    -0.14890
F1780       F  0.82571455  0.40658173  0.65622903    -0.12520
C1781       C  0.92685082  0.32990914  0.58538046     0.25490
C1782       C  0.91693227  0.35352291  0.61635310    -0.22620
C1783       C  0.92860766  0.34130614  0.65262801     0.20390
C1784       C  0.95442914  0.31175468  0.65649587     0.25430
C1785       C  0.96675272  0.29094369  0.62508515    -0.22570
C1786       C  0.95012405  0.29865029  0.58992184     0.20330
F1787       F  0.95730133  0.27691756  0.55920669    -0.12520
F1788       F  0.91437696  0.33737652  0.55005304    -0.14890
F1789       F  0.96828297  0.30400070  0.69121117    -0.14890
F1790       F  0.91570335  0.35758002  0.68486443    -0.12520
C1791       C  0.83463813  0.41728375  0.57783697     0.25490
C1792       C  0.85531451  0.38564475  0.59005029    -0.22620
C1793       C  0.83914420  0.35013845  0.57977173     0.20390
C1794       C  0.81108613  0.34700351  0.55125445     0.25430
C1795       C  0.79752883  0.37906239  0.53357476    -0.22570
C1796       C  0.80845701  0.41418962  0.54828742     0.20330
F1797       F  0.79544803  0.44603436  0.53289954    -0.12520
F1798       F  0.84093501  0.45199207  0.59307906    -0.14890
F1799       F  0.79835007  0.31256579  0.53984256    -0.14890
F1800       F  0.85001322  0.31836355  0.59686488    -0.12520
C1801       C  0.81096359  0.34620907  0.94469775     0.25490
C1802       C  0.79627853  0.37860601  0.96188379    -0.22620
C1803       C  0.80392565  0.41315340  0.94504961     0.20390
C1804       C  0.82931889  0.41563434  0.91479113     0.25430
C1805       C  0.85117690  0.38431665  0.90320582    -0.22570
C1806       C  0.83716198  0.34882958  0.91483886     0.20330
F1807       F  0.84902694  0.31651762  0.89832739    -0.12520
F1808       F  0.80109559  0.31198654  0.95780907    -0.14890
F1809       F  0.83487611  0.44965279  0.89908772    -0.14890
F1810       F  0.78871150  0.44511485  0.95906121    -0.12520
C1811       C  0.85864581  0.41806063  0.82564655     0.25490
C1812       C  0.89147863  0.41385581  0.84850592    -0.22620
C1813       C  0.92581673  0.43156033  0.83617702     0.20390
C1814       C  0.92539433  0.45789662  0.80758572     0.25430
C1815       C  0.89140512  0.46582904  0.78870415    -0.22570
C1816       C  0.85877195  0.44360001  0.79598217     0.20330
F1817       F  0.82565250  0.44946801  0.77723494    -0.12520
F1818       F  0.82613827  0.39808256  0.83204697    -0.14890
F1819       F  0.95790072  0.47747560  0.79988694    -0.14890
F1820       F  0.95987193  0.42461591  0.85291040    -0.12520
C1821       C  0.95331621  0.31127675  0.84015061     0.25490
C1822       C  0.96787216  0.29411288  0.87221551    -0.22620
C1823       C  0.95192606  0.30308118  0.90735610     0.20390
C1824       C  0.92540677  0.33189612  0.91089577     0.25430
C1825       C  0.91404704  0.35309243  0.87924291    -0.22570
C1826       C  0.92613299  0.33960943  0.84330814     0.20330
F1827       F  0.91246578  0.35367658  0.81079559    -0.12520
F1828       F  0.96663771  0.30154181  0.80552567    -0.14890
F1829       F  0.91238077  0.34047434  0.94599361    -0.14890
F1830       F  0.96315140  0.28513362  0.93874471    -0.12520
N1831       N  0.54535966  0.57434094  0.04013014    -0.04230
N1832       N  0.55330390  0.59986018  0.06645101    -0.56350
N1833       N  0.56922232  0.54883912  0.45385011    -0.03910
N1834       N  0.59469410  0.55640484  0.42811479    -0.58470
N1835       N  0.54329359  0.57508179  0.45505556    -0.03500
N1836       N  0.55100515  0.60139332  0.43026880    -0.56320
N1837       N  0.57174860  0.54854984  0.03890427    -0.03180
N1838       N  0.59813377  0.55576068  0.06438131    -0.58830
C1839       C  0.58632789  0.58769487  0.08146932     0.97950
C1840       C  0.58338014  0.58918730  0.41356764     0.97730
N1841       N  0.54575414  0.93406380  0.45058920    -0.04410
N1842       N  0.55523938  0.90635634  0.42754120    -0.56920
N1843       N  0.57468804  0.96001424  0.03794738    -0.02530
N1844       N  0.60072504  0.95032085  0.06326177    -0.58180
N1845       N  0.54810614  0.93402464  0.03533787    -0.04440
N1846       N  0.55601074  0.90664883  0.05755456    -0.57190
N1847       N  0.57248198  0.96020153  0.45114878    -0.02170
N1848       N  0.60044697  0.95063076  0.42820906    -0.58260
Mn1849     Mn  0.57310927  0.00461026  0.99550907     1.18440
C1850       C  0.58994031  0.91651522  0.41390570     1.00030
C1851       C  0.58826222  0.91628776  0.07577669     1.00700
N1852       N  0.95423022  0.57166718  0.45671668    -0.04460
N1853       N  0.94702814  0.59816445  0.43281653    -0.60770
N1854       N  0.92976631  0.54538977  0.04373580    -0.03260
N1855       N  0.90289869  0.55366808  0.06830228    -0.61440
N1856       N  0.95573186  0.57224483  0.04322278    -0.03970
N1857       N  0.94680345  0.59909072  0.06754231    -0.61040
N1858       N  0.92527655  0.54804736  0.45852800    -0.02860
N1859       N  0.89676768  0.55992445  0.43730446    -0.61730
Mn1860     Mn  0.49958638  0.57416983  0.99877385     1.10660
C1861       C  0.91057307  0.59193552  0.42166444     1.01250
C1862       C  0.91304308  0.58777910  0.08265647     1.01330
N1863       N  0.95881742  0.93105884  0.03910369    -0.03980
N1864       N  0.95186425  0.90427803  0.06355339    -0.59350
N1865       N  0.92883943  0.95750473  0.45458215    -0.03290
N1866       N  0.90196470  0.94776348  0.42998706    -0.56080
N1867       N  0.95622445  0.93271086  0.45357227    -0.04610
N1868       N  0.94849039  0.90588720  0.42875518    -0.58920
N1869       N  0.93241676  0.95676891  0.04122078    -0.03590
N1870       N  0.90759319  0.94816399  0.06752086    -0.56100
Mn1871     Mn  0.00212939  0.93251571  0.49449105     1.20190
Mn1872     Mn  0.92779992  0.50170369  0.49944600     1.10090
Cl1873     Cl  0.50056388  0.50330391  0.99693028    -0.84070
C1874       C  0.91924613  0.91496204  0.08103489     0.98260
C1875       C  0.91419132  0.91504063  0.41435034     0.98060
C1876       C  0.89174206  0.89064568  0.38524385    -0.00600
C1877       C  0.89566928  0.89146793  0.10935668    -0.00600
C1878       C  0.77455272  0.87638948  0.49815882     0.02460
C1879       C  0.73563217  0.87435664  0.49858827     0.02450
C1880       C  0.88961564  0.61680662  0.39311114    -0.00600
C1881       C  0.88857955  0.50247413  0.26896522     0.02460
C1882       C  0.89061789  0.50430353  0.23052883     0.02450
C1883       C  0.88762203  0.61169884  0.10970912    -0.00600
C1884       C  0.72773009  0.62152712  0.49927261     0.02460
C1885       C  0.76682484  0.62222312  0.49952781     0.02450
C1886       C  0.61553780  0.89114426  0.38858602    -0.00600
C1887       C  0.50284468  0.73366374  0.36477037     0.02460
C1888       C  0.50365089  0.77178679  0.36914738     0.02450
C1889       C  0.60703305  0.60914516  0.38396530    -0.00600
C1890       C  0.62508308  0.99439935  0.26636143     0.02460
C1891       C  0.62112575  0.99323208  0.22846066     0.02450
C1892       C  0.60884379  0.60647032  0.11306759    -0.00600
C1893       C  0.60926781  0.88958236  0.10326163    -0.00600
C1894       C  0.50189341  0.76696247  0.12837895     0.02460
C1895       C  0.49983164  0.72867982  0.13018001     0.02450
C1896       C  0.54470376  0.80248868  0.08720030     0.25490
C1897       C  0.53799189  0.78837946  0.12288700    -0.22620
C1898       C  0.56175614  0.80215908  0.15239045     0.20390
C1899       C  0.58867399  0.83125149  0.14482671     0.25430
C1900       C  0.58505890  0.85240789  0.11105886    -0.22570
C1901       C  0.55493609  0.83968209  0.08696892     0.20330
F1902       F  0.52202839  0.85948441  0.08844921    -0.12580
F1903       F  0.52699810  0.78750999  0.05636969    -0.14890
F1904       F  0.61540227  0.84019881  0.17135245    -0.14890
F1905       F  0.55944266  0.78739469  0.18723836    -0.12520
C1906       C  0.52517988  0.66635876  0.15069233     0.25490
C1907       C  0.53354144  0.70189964  0.13588559    -0.22620
C1908       C  0.57284876  0.70750372  0.12609303     0.20390
C1909       C  0.59924387  0.67825160  0.12919812     0.25430
C1910       C  0.58603758  0.64080865  0.12929499    -0.22570
C1911       C  0.54878198  0.63616406  0.14406700     0.20330
F1912       F  0.53353297  0.60266290  0.15249215    -0.12520
F1913       F  0.49368499  0.65947002  0.17143580    -0.14890
F1914       F  0.63715271  0.68680158  0.12866202    -0.14890
F1915       F  0.58696258  0.73883813  0.11055526    -0.12520
C1916       C  0.58289439  0.94326369  0.19360354     0.25490
C1917       C  0.61846093  0.95721371  0.20657879    -0.22620
C1918       C  0.65161869  0.94173679  0.19141888     0.20390
C1919       C  0.64918118  0.91640465  0.16091502     0.25430
C1920       C  0.61379263  0.91042353  0.14161692    -0.22570
C1921       C  0.58049735  0.92228629  0.16030234     0.20330
F1922       F  0.54528432  0.91359798  0.14622257    -0.12520
F1923       F  0.55000587  0.95095347  0.21189095    -0.14890
F1924       F  0.68144333  0.89825316  0.15078180    -0.14890
F1925       F  0.68642119  0.95201205  0.20545960    -0.12520
C1926       C  0.64770914  0.55206803  0.19834345     0.25490
C1927       C  0.61687407  0.52760765  0.20591212    -0.22620
C1928       C  0.58350731  0.53114123  0.18498428     0.20390
C1929       C  0.58397367  0.55054986  0.15194925     0.25430
C1930       C  0.61282427  0.57811406  0.14534743    -0.22570
C1931       C  0.64387429  0.57986221  0.17105298     0.20330
F1932       F  0.67214428  0.60593759  0.16749543    -0.12520
F1933       F  0.68194859  0.54792865  0.21548077    -0.14890
F1934       F  0.55425783  0.54311516  0.12806581    -0.14890
F1935       F  0.55013970  0.51519360  0.19568502    -0.12520
C1936       C  0.64540099  0.58157723  0.32738011     0.25490
C1937       C  0.61201029  0.58150684  0.34992220    -0.22620
C1938       C  0.58284916  0.55497576  0.33967293     0.20390
C1939       C  0.58496753  0.53440633  0.30654799     0.25430
C1940       C  0.62002694  0.52955539  0.28885610    -0.22570
C1941       C  0.65078727  0.55314099  0.29995003     0.20330
F1942       F  0.68628842  0.54762496  0.28601658    -0.12520
F1943       F  0.67421407  0.60664384  0.33416728    -0.14890
F1944       F  0.55282106  0.51703047  0.29355619    -0.14890
F1945       F  0.55183703  0.54762743  0.36139916    -0.12520
C1946       C  0.54859711  0.64077509  0.35187091     0.25490
C1947       C  0.58539532  0.64433296  0.36866948    -0.22620
C1948       C  0.60051930  0.68132231  0.36857920     0.20390
C1949       C  0.57575324  0.71227145  0.36862252     0.25430
C1950       C  0.53668240  0.70742109  0.35782143    -0.22570
C1951       C  0.52753562  0.67191105  0.34252879     0.20330
F1952       F  0.49682372  0.66660158  0.31968104    -0.12520
F1953       F  0.53144153  0.60771362  0.34389528    -0.14890
F1954       F  0.59141663  0.74545882  0.37925159    -0.14890
F1955       F  0.63878174  0.68806858  0.36919895    -0.12520
C1956       C  0.65624613  0.92168498  0.33484889     0.25490
C1957       C  0.62044903  0.91201240  0.35118431    -0.22620
C1958       C  0.58707664  0.92241508  0.33168774     0.20390
C1959       C  0.58929039  0.94395743  0.29975188     0.25430
C1960       C  0.62435261  0.95966159  0.28866450    -0.22570
C1961       C  0.65796487  0.94705200  0.30529252     0.20330
F1962       F  0.69244466  0.96012737  0.29355058    -0.12520
F1963       F  0.68967505  0.90751282  0.34720623    -0.14890
F1964       F  0.55643653  0.95087302  0.28122803    -0.14890
F1965       F  0.55181412  0.91162238  0.34364038    -0.12520
C1966       C  0.57966008  0.83345942  0.41368788     0.25490
C1967       C  0.59389337  0.85296391  0.38214398    -0.22620
C1968       C  0.58566193  0.83693407  0.34593850     0.20390
C1969       C  0.55732576  0.80911541  0.34154912     0.25430
C1970       C  0.53880550  0.79476577  0.37311088    -0.22570
C1971       C  0.55170948  0.80557661  0.40921984     0.20330
F1972       F  0.53715121  0.78919353  0.44030586    -0.12520
F1973       F  0.59099108  0.84322298  0.44924463    -0.14890
F1974       F  0.54754518  0.79657159  0.30646025    -0.14890
F1975       F  0.60453476  0.84786554  0.31460644    -0.12520
C1976       C  0.67423729  0.58564229  0.08521847     0.25490
C1977       C  0.64714564  0.61474104  0.09177272    -0.22620
C1978       C  0.64999871  0.64539272  0.06701027     0.20390
C1979       C  0.68197697  0.65082232  0.04468361     0.25430
C1980       C  0.70530725  0.62071138  0.03521099    -0.22570
C1981       C  0.70106941  0.58786297  0.05591015     0.20330
F1982       F  0.72049438  0.55669734  0.04593970    -0.12520
F1983       F  0.67099775  0.55217591  0.10246356    -0.14890
F1984       F  0.68805662  0.68512032  0.03032265    -0.14890
F1985       F  0.62002782  0.66789727  0.06000416    -0.12520
C1986       C  0.68491379  0.65246086  0.45199045     0.25490
C1987       C  0.70440245  0.62070535  0.46363719    -0.22620
C1988       C  0.69399003  0.58638233  0.44646639     0.20390
C1989       C  0.66919237  0.58503643  0.41529949     0.25430
C1990       C  0.64529049  0.61606244  0.40691079    -0.22570
C1991       C  0.65157987  0.64828253  0.43038507     0.20330
F1992       F  0.62379942  0.67353197  0.43725454    -0.12520
F1993       F  0.69573470  0.68720290  0.46396743    -0.14890
F1994       F  0.66419111  0.55118346  0.39781465    -0.14890
F1995       F  0.70643907  0.55372094  0.46083472    -0.12520
C1996       C  0.91141553  0.67045266  0.14989227     0.25490
C1997       C  0.90681055  0.65147573  0.11461609    -0.22620
C1998       C  0.92182915  0.67020349  0.08289143     0.20390
C1999       C  0.95173380  0.69628645  0.08757398     0.25430
C2000       C  0.96135175  0.71018982  0.12361677    -0.22570
C2001       C  0.93707346  0.70107926  0.15371075     0.20330
F2002       F  0.94308198  0.71706121  0.18825183    -0.12520
F2003       F  0.89211653  0.65917709  0.18083878    -0.14890
F2004       F  0.97308372  0.70569172  0.05725188    -0.14890
F2005       F  0.91115755  0.65976913  0.04732224    -0.12520
C2006       C  0.82826589  0.58178818  0.07619935     0.25490
C2007       C  0.84725138  0.61443543  0.09067253    -0.22620
C2008       C  0.82877689  0.64889570  0.08390344     0.20390
C2009       C  0.79885192  0.65067246  0.05753644     0.25430
C2010       C  0.78867817  0.61899718  0.03554948    -0.22570
C2011       C  0.80249087  0.58418906  0.04623178     0.20330
F2012       F  0.79200067  0.55251183  0.02692704    -0.12520
F2013       F  0.83539146  0.54738634  0.09000039    -0.14890
F2014       F  0.78121042  0.68374984  0.05216675    -0.14890
F2015       F  0.83887495  0.68092082  0.10272682    -0.12520
C2016       C  0.92352121  0.55381971  0.19288168     0.25490
C2017       C  0.88975903  0.53995241  0.20908311    -0.22620
C2018       C  0.85478900  0.55464860  0.19717886     0.20390
C2019       C  0.85332613  0.57986709  0.16718016     0.25430
C2020       C  0.88708176  0.59034156  0.14764367    -0.22570
C2021       C  0.92226779  0.57913116  0.16341299     0.20330
F2022       F  0.95592262  0.59081919  0.14853474    -0.12520
F2023       F  0.95809394  0.54138147  0.20409397    -0.14890
F2024       F  0.81872637  0.59341063  0.15746611    -0.14890
F2025       F  0.82169307  0.54294151  0.21324703    -0.12520
C2026       C  0.91117513  0.67523243  0.35398558     0.25490
C2027       C  0.91378539  0.65393987  0.38721743    -0.22620
C2028       C  0.93630834  0.67073835  0.41693872     0.20390
C2029       C  0.96335732  0.69843396  0.40982351     0.25430
C2030       C  0.96618655  0.71371309  0.37417196    -0.22570
C2031       C  0.93754556  0.70470484  0.34732549     0.20330
F2032       F  0.93781360  0.72142664  0.31333062    -0.12520
F2033       F  0.88495578  0.66601730  0.32700305    -0.14890
F2034       F  0.98792620  0.70949779  0.43771926    -0.14890
F2035       F  0.93103540  0.66197477  0.45371936    -0.12520
C2036       C  0.81705998  0.65786401  0.46403847     0.25490
C2037       C  0.79078461  0.62783483  0.46493826    -0.22620
C2038       C  0.79005046  0.60341071  0.43340014     0.20390
C2039       C  0.81536222  0.60897718  0.40359602     0.25430
C2040       C  0.84967191  0.62938950  0.40964401    -0.22570
C2041       C  0.84637310  0.65845419  0.43740300     0.20330
F2042       F  0.86732746  0.69048825  0.43612007    -0.12520
F2043       F  0.81458290  0.68708439  0.48868969    -0.14890
F2044       F  0.80420335  0.59723719  0.36865581    -0.14890
F2045       F  0.76757332  0.57252958  0.43182258    -0.12520
C2046       C  0.85944918  0.53448204  0.32463705     0.25490
C2047       C  0.88580834  0.53608607  0.29510920    -0.22620
C2048       C  0.91470957  0.56383388  0.29782899     0.20390
C2049       C  0.91550987  0.59023172  0.32800864     0.25430
C2050       C  0.88770361  0.58960062  0.35732319    -0.22570
C2051       C  0.86380599  0.55699540  0.35671212     0.20330
F2052       F  0.84534983  0.54463354  0.38771942    -0.12520
F2053       F  0.83070008  0.50869047  0.32438062    -0.14890
F2054       F  0.94702016  0.61243090  0.33093904    -0.14890
F2055       F  0.94455498  0.56329368  0.27367232    -0.12520
C2056       C  0.70437062  0.90906955  0.05159656     0.25490
C2057       C  0.71218272  0.87485235  0.03370524    -0.22620
C2058       C  0.68996968  0.84336078  0.04322462     0.20390
C2059       C  0.65856261  0.84660584  0.06767262     0.25430
C2060       C  0.64832879  0.88194388  0.08339793    -0.22570
C2061       C  0.67364898  0.91255852  0.07616766     0.20330
F2062       F  0.66818267  0.94697214  0.09196928    -0.12520
F2063       F  0.72427722  0.94045015  0.04287720    -0.14890
F2064       F  0.63749166  0.81517605  0.07365140    -0.14890
F2065       F  0.69721052  0.80957151  0.02692268    -0.12520
C2066       C  0.69875818  0.84639947  0.44412101     0.25490
C2067       C  0.71312709  0.87802815  0.46351163    -0.22620
C2068       C  0.70226077  0.91354994  0.45198486     0.20390
C2069       C  0.67504743  0.91732501  0.42381887     0.25430
C2070       C  0.65421433  0.88571092  0.40961356    -0.22570
C2071       C  0.66983025  0.85001577  0.41713444     0.20330
F2072       F  0.65784761  0.81844830  0.39855245    -0.12520
F2073       F  0.71169304  0.81185008  0.45229990    -0.14890
F2074       F  0.66943665  0.95220690  0.41052589    -0.14890
F2075       F  0.71657430  0.94494194  0.46913463    -0.12520
C2076       C  0.92792811  0.93132350  0.16193154     0.25490
C2077       C  0.89370239  0.91587287  0.14614867    -0.22620
C2078       C  0.85909938  0.92451564  0.16495468     0.20390
C2079       C  0.85822574  0.95270793  0.19288485     0.25430
C2080       C  0.89212907  0.96974362  0.20627241    -0.22570
C2081       C  0.92707913  0.95697327  0.19219388     0.20330
F2082       F  0.96056831  0.97008645  0.20696041    -0.12520
F2083       F  0.96249418  0.92159944  0.14784133    -0.14890
F2084       F  0.82386911  0.96439123  0.20574751    -0.14890
F2085       F  0.82571265  0.90658237  0.15622727    -0.12520
C2086       C  0.92684749  0.82990936  0.08537665     0.25490
C2087       C  0.91692907  0.85352283  0.11634956    -0.22620
C2088       C  0.92860393  0.84130540  0.15262438     0.20390
C2089       C  0.95442471  0.81175337  0.15649205     0.25430
C2090       C  0.96674833  0.79094270  0.12508114    -0.22570
C2091       C  0.95012035  0.79865018  0.08991774     0.20330
F2092       F  0.95729794  0.77691795  0.05920231    -0.12520
F2093       F  0.91437379  0.83737731  0.05004932    -0.14890
F2094       F  0.96827804  0.80399866  0.19120737    -0.14890
F2095       F  0.91569974  0.85757916  0.18486092    -0.12520
C2096       C  0.83463483  0.91728433  0.07783516     0.25490
C2097       C  0.85531127  0.88564518  0.09004797    -0.22620
C2098       C  0.83914081  0.85013897  0.07976940     0.20390
C2099       C  0.81108260  0.84700427  0.05125233     0.25430
C2100       C  0.79752540  0.87906332  0.03357292    -0.22570
C2101       C  0.80845355  0.91419046  0.04828579     0.20330
F2102       F  0.79544446  0.94603531  0.03289820    -0.12520
F2103       F  0.84093194  0.95199256  0.09307740    -0.14890
F2104       F  0.79834637  0.81256667  0.03984028    -0.14890
F2105       F  0.85000991  0.81836393  0.09686225    -0.12520
C2106       C  0.81096495  0.84620886  0.44469606     0.25490
C2107       C  0.79627985  0.87860569  0.46188236    -0.22620
C2108       C  0.80392696  0.91315315  0.44504824     0.20390
C2109       C  0.82932011  0.91563423  0.41478959     0.25430
C2110       C  0.85117810  0.88431662  0.40320395    -0.22570
C2111       C  0.83716324  0.84882952  0.41483701     0.20330
F2112       F  0.84902811  0.81651764  0.39832532    -0.12520
F2113       F  0.80109704  0.81198626  0.45780725    -0.14890
F2114       F  0.83487732  0.94965276  0.39908635    -0.14890
F2115       F  0.78871281  0.94511454  0.45905998    -0.12520
C2116       C  0.85864781  0.91806086  0.32564425     0.25490
C2117       C  0.89148024  0.91385642  0.34850425    -0.22620
C2118       C  0.92581849  0.93156091  0.33617560     0.20390
C2119       C  0.92539663  0.95789643  0.30758350     0.25430
C2120       C  0.89140787  0.96582821  0.28870080    -0.22570
C2121       C  0.85877458  0.94359930  0.29597897     0.20330
F2122       F  0.82565542  0.94946673  0.27723106    -0.12520
F2123       F  0.82614007  0.89808315  0.33204475    -0.14890
F2124       F  0.95790313  0.97747533  0.29988495    -0.14890
F2125       F  0.95987342  0.92461697  0.35290971    -0.12520
C2126       C  0.95331732  0.81127721  0.34014708     0.25490
C2127       C  0.96787332  0.79411262  0.37221156    -0.22620
C2128       C  0.95192737  0.80308047  0.40735237     0.20390
C2129       C  0.92540819  0.83189551  0.41089269     0.25430
C2130       C  0.91404834  0.85309245  0.37924031    -0.22570
C2131       C  0.92613419  0.83960998  0.34330525     0.20330
F2132       F  0.91246693  0.85367769  0.31079298    -0.12520
F2133       F  0.96663857  0.80154280  0.30552191    -0.14890
F2134       F  0.91238230  0.84047308  0.44599071    -0.14890
F2135       F  0.96315272  0.78513229  0.43874060    -0.12520
N2136       N  0.54536190  0.57434002  0.54012984    -0.04230
N2137       N  0.55330628  0.59985964  0.56645029    -0.56350
N2138       N  0.56922029  0.54884057  0.95385006    -0.03910
N2139       N  0.59469186  0.55640618  0.92811449    -0.58470
N2140       N  0.54329166  0.57508332  0.95505568    -0.03500
N2141       N  0.55100311  0.60139481  0.93026883    -0.56320
N2142       N  0.57175087  0.54854894  0.53890413    -0.03180
N2143       N  0.59813622  0.55576021  0.56438087    -0.58830
C2144       C  0.58633040  0.58769462  0.58146852     0.97950
C2145       C  0.58337793  0.58918870  0.91356739     0.97730
N2146       N  0.54575210  0.93406527  0.95058890    -0.04410
N2147       N  0.55523745  0.90635782  0.92754094    -0.56920
N2148       N  0.57469041  0.96001314  0.53794764    -0.02530
N2149       N  0.60072746  0.95032002  0.56326210    -0.58180
N2150       N  0.54810875  0.93402330  0.53533804    -0.04440
N2151       N  0.55601369  0.90664747  0.55755457    -0.57190
N2152       N  0.57247989  0.96020304  0.95114856    -0.02170
N2153       N  0.60044496  0.95063233  0.92820892    -0.58260
Mn2154     Mn  0.57311146  0.00460896  0.49550915     1.18440
C2155       C  0.58993839  0.91651677  0.91390554     1.00030
C2156       C  0.58826496  0.91628682  0.57577698     1.00700
N2157       N  0.95422847  0.57166842  0.95671640    -0.04460
N2158       N  0.94702668  0.59816577  0.93281628    -0.60770
N2159       N  0.92976866  0.54538882  0.54373625    -0.03260
N2160       N  0.90290110  0.55366743  0.56830272    -0.61440
N2161       N  0.95573431  0.57224377  0.54322302    -0.03970
N2162       N  0.94680611  0.59908982  0.56754244    -0.61040
N2163       N  0.92527466  0.54804874  0.95852754    -0.02860
N2164       N  0.89676592  0.55992612  0.93730398    -0.61730
Mn2165     Mn  0.49958845  0.57416859  0.49877383     1.10660
C2166       C  0.91057159  0.59193721  0.92166420     1.01250
C2167       C  0.91304571  0.58777849  0.58265671     1.01330
N2168       N  0.95881965  0.93105777  0.53910456    -0.03980
N2169       N  0.95186642  0.90427720  0.56355453    -0.59350
N2170       N  0.92883742  0.95750605  0.95458147    -0.03290
N2171       N  0.90196255  0.94776454  0.92998664    -0.56080
N2172       N  0.95622249  0.93271224  0.95357162    -0.04610
N2173       N  0.94848834  0.90588836  0.92875480    -0.58920
N2174       N  0.93241913  0.95676800  0.54122158    -0.03590
N2175       N  0.90759565  0.94816345  0.56752187    -0.56100
Mn2176     Mn  0.00212723  0.93251706  0.99449051     1.20190
Mn2177     Mn  0.92779774  0.50170487  0.99944540     1.10090
Cl2178     Cl  0.50056602  0.50330264  0.49693060    -0.84070
C2179       C  0.91924842  0.91496156  0.58103613     0.98260
C2180       C  0.91418916  0.91504161  0.91435011     0.98060
C2181       C  0.89173991  0.89064654  0.88524376    -0.00600
C2182       C  0.89567125  0.89146773  0.60935793    -0.00600
C2183       C  0.77455043  0.87639036  0.99815853     0.02460
C2184       C  0.73562993  0.87435784  0.99858792     0.02450
C2185       C  0.88961419  0.61680884  0.89311143    -0.00600
C2186       C  0.88857788  0.50247545  0.76896590     0.02460
C2187       C  0.89061787  0.50430444  0.73052954     0.02450
C2188       C  0.88762474  0.61169867  0.60970902    -0.00600
C2189       C  0.72772755  0.62152831  0.99927251     0.02460
C2190       C  0.76682236  0.62222391  0.99952786     0.02450
C2191       C  0.61553594  0.89114593  0.88858587    -0.00600
C2192       C  0.50284324  0.73366548  0.86476866     0.02460
C2193       C  0.50364944  0.77178845  0.86914626     0.02450
C2194       C  0.60703091  0.60914670  0.88396509    -0.00600
C2195       C  0.62508236  0.99440083  0.76636156     0.02460
C2196       C  0.62112707  0.99323312  0.72846065     0.02450
C2197       C  0.60884612  0.60647025  0.61306682    -0.00600
C2198       C  0.60927052  0.88958189  0.60326250    -0.00600
C2199       C  0.50189573  0.76696256  0.62838098     0.02460
C2200       C  0.49983411  0.72867986  0.63018088     0.02450
C2201       C  0.54470483  0.80248971  0.58720214     0.25490
C2202       C  0.53799415  0.78837960  0.62288865    -0.22620
C2203       C  0.56175972  0.80215825  0.65239160     0.20390
C2204       C  0.58867774  0.83125054  0.64482746     0.25430
C2205       C  0.58506166  0.85240757  0.61106015    -0.22570
C2206       C  0.55493744  0.83968298  0.58697154     0.20330
F2207       F  0.52203040  0.85948626  0.58845403    -0.12580
F2208       F  0.52699824  0.78751198  0.55637162    -0.14890
F2209       F  0.61540701  0.84019733  0.67135241    -0.14890
F2210       F  0.55944738  0.78739310  0.68723923    -0.12520
C2211       C  0.52518235  0.66635864  0.65069218     0.25490
C2212       C  0.53354392  0.70189966  0.63588587    -0.22620
C2213       C  0.57285110  0.70750375  0.62609289     0.20390
C2214       C  0.59924618  0.67825156  0.62919765     0.25430
C2215       C  0.58603982  0.64080859  0.62929406    -0.22570
C2216       C  0.54878414  0.63616392  0.64406591     0.20330
F2217       F  0.53353462  0.60266264  0.65248977    -0.12520
F2218       F  0.49368755  0.65946973  0.67143576    -0.14890
F2219       F  0.63715503  0.68680154  0.62866195    -0.14890
F2220       F  0.58696465  0.73883820  0.61055493    -0.12520
C2221       C  0.58289630  0.94326427  0.69360359     0.25490
C2222       C  0.61846268  0.95721455  0.70657899    -0.22620
C2223       C  0.65162062  0.94173762  0.69141943     0.20390
C2224       C  0.64918344  0.91640509  0.66091584     0.25430
C2225       C  0.61379502  0.91042349  0.64161762    -0.22570
C2226       C  0.58049959  0.92228639  0.66030267     0.20330
F2227       F  0.54528667  0.91359793  0.64622274    -0.12520
F2228       F  0.55000758  0.95095433  0.71189050    -0.14890
F2229       F  0.68144576  0.89825372  0.65078294    -0.14890
F2230       F  0.68642299  0.95201321  0.70546027    -0.12520
C2231       C  0.64771108  0.55206846  0.69834303     0.25490
C2232       C  0.61687579  0.52760844  0.70591182    -0.22620
C2233       C  0.58350910  0.53114198  0.68498394     0.20390
C2234       C  0.58397576  0.55055010  0.65194867     0.25430
C2235       C  0.61282643  0.57811422  0.64534680    -0.22570
C2236       C  0.64387644  0.57986245  0.67105238     0.20330
F2237       F  0.67214658  0.60593763  0.66749469    -0.12520
F2238       F  0.68195046  0.54792895  0.71548047    -0.14890
F2239       F  0.55426028  0.54311486  0.62806495    -0.14890
F2240       F  0.55014141  0.51519452  0.69568473    -0.12520
C2241       C  0.64539922  0.58157914  0.82737996     0.25490
C2242       C  0.61200837  0.58150856  0.84992186    -0.22620
C2243       C  0.58284738  0.55497750  0.83967223     0.20390
C2244       C  0.58496611  0.53440813  0.80654724     0.25430
C2245       C  0.62002573  0.52955718  0.78885573    -0.22570
C2246       C  0.65078583  0.55314298  0.79994986     0.20330
F2247       F  0.68628709  0.54762720  0.78601661    -0.12520
F2248       F  0.67421216  0.60664585  0.83416736    -0.14890
F2249       F  0.55281977  0.51703234  0.79355505    -0.14890
F2250       F  0.55183536  0.54762865  0.86139842    -0.12520
C2251       C  0.54859481  0.64077648  0.85187107     0.25490
C2252       C  0.58539321  0.64433444  0.86866919    -0.22620
C2253       C  0.60051759  0.68132363  0.86857773     0.20390
C2254       C  0.57575188  0.71227306  0.86862019     0.25430
C2255       C  0.53668089  0.70742272  0.85781963    -0.22570
C2256       C  0.52753374  0.67191239  0.84252793     0.20330
F2257       F  0.49682166  0.66660264  0.81968046    -0.12520
F2258       F  0.53143856  0.60771495  0.84389720    -0.14890
F2259       F  0.59141583  0.74546075  0.87924741    -0.14890
F2260       F  0.63878012  0.68806947  0.86919691    -0.12520
C2261       C  0.65624463  0.92168645  0.83484903     0.25490
C2262       C  0.62044739  0.91201416  0.85118434    -0.22620
C2263       C  0.58707511  0.92241706  0.83168774     0.20390
C2264       C  0.58928912  0.94395934  0.79975191     0.25430
C2265       C  0.62435148  0.95966329  0.78866474    -0.22570
C2266       C  0.65796363  0.94705349  0.80529275     0.20330
F2267       F  0.69244353  0.96012864  0.79355088    -0.12520
F2268       F  0.68967341  0.90751400  0.84720636    -0.14890
F2269       F  0.55643542  0.95087488  0.78122775    -0.14890
F2270       F  0.55181249  0.91162450  0.84364023    -0.12520
C2271       C  0.57965842  0.83346082  0.91368728     0.25490
C2272       C  0.59389159  0.85296562  0.88214353    -0.22620
C2273       C  0.58566017  0.83693609  0.84593792     0.20390
C2274       C  0.55732400  0.80911751  0.84154830     0.25430
C2275       C  0.53880399  0.79476739  0.87310997    -0.22570
C2276       C  0.55170813  0.80557775  0.90921900     0.20330
F2277       F  0.53715014  0.78919416  0.94030487    -0.12520
F2278       F  0.59098930  0.84322423  0.94924410    -0.14890
F2279       F  0.54754327  0.79657413  0.80645933    -0.14890
F2280       F  0.60453300  0.84786779  0.81460594    -0.12520
C2281       C  0.67423928  0.58564136  0.58521798     0.25490
C2282       C  0.64714823  0.61474064  0.59177238    -0.22620
C2283       C  0.65000237  0.64539274  0.56701058     0.20390
C2284       C  0.68198117  0.65082200  0.54468458     0.25430
C2285       C  0.70531022  0.62071040  0.53521122    -0.22570
C2286       C  0.70107142  0.58786173  0.55590972     0.20330
F2287       F  0.72049554  0.55669572  0.54593875    -0.12520
F2288       F  0.67099901  0.55217487  0.60246278    -0.14890
F2289       F  0.68806259  0.68512030  0.53032494    -0.14890
F2290       F  0.62003210  0.66789797  0.56000421    -0.12520
C2291       C  0.68491248  0.65246245  0.95198950     0.25490
C2292       C  0.70440014  0.62070665  0.96363702    -0.22620
C2293       C  0.69398712  0.58638359  0.94646675     0.20390
C2294       C  0.66918977  0.58503773  0.91529967     0.25430
C2295       C  0.64528835  0.61606396  0.90691057    -0.22570
C2296       C  0.65157851  0.64828450  0.93038408     0.20330
F2297       F  0.62379875  0.67353482  0.93725291    -0.12520
F2298       F  0.69573448  0.68720446  0.96396574    -0.14890
F2299       F  0.66418850  0.55118477  0.89781480    -0.14890
F2300       F  0.70643668  0.55372227  0.96083484    -0.12520
C2301       C  0.91141800  0.67045254  0.64989222     0.25490
C2302       C  0.90681360  0.65147539  0.61461607    -0.22620
C2303       C  0.92183273  0.67020295  0.58289152     0.20390
C2304       C  0.95173718  0.69628605  0.58757438     0.25430
C2305       C  0.96135440  0.71018979  0.62361721    -0.22570
C2306       C  0.93707579  0.70107920  0.65371093     0.20330
F2307       F  0.94308388  0.71706122  0.68825204    -0.12520
F2308       F  0.89211852  0.65917714  0.68083851    -0.14890
F2309       F  0.97308759  0.70569119  0.55725256    -0.14890
F2310       F  0.91116161  0.65976851  0.54732223    -0.12520
C2311       C  0.82826841  0.58178825  0.57619956     0.25490
C2312       C  0.84725435  0.61443554  0.59067207    -0.22620
C2313       C  0.82878054  0.64889599  0.58390211     0.20390
C2314       C  0.79885571  0.65067268  0.55753500     0.25430
C2315       C  0.78868103  0.61899697  0.53554914    -0.22570
C2316       C  0.80249314  0.58418887  0.54623221     0.20330
F2317       F  0.79200226  0.55251137  0.52692829    -0.12520
F2318       F  0.83539375  0.54738655  0.59000107    -0.14890
F2319       F  0.78121487  0.68375026  0.55216455    -0.14890
F2320       F  0.83887907  0.68092139  0.60272477    -0.12520
C2321       C  0.92352227  0.55381993  0.69288245     0.25490
C2322       C  0.88975972  0.53995309  0.70908354    -0.22620
C2323       C  0.85479000  0.55464955  0.69717881     0.20390
C2324       C  0.85332780  0.57986786  0.66717996     0.25430
C2325       C  0.88708378  0.59034167  0.64764368    -0.22570
C2326       C  0.92226949  0.57913102  0.66341345     0.20330
F2327       F  0.95592461  0.59081849  0.64853541    -0.12520
F2328       F  0.95809474  0.54138168  0.70409550    -0.14890
F2329       F  0.81872835  0.59341188  0.65746556    -0.14890
F2330       F  0.82169375  0.54294285  0.71324663    -0.12520
C2331       C  0.91117326  0.67523452  0.85398565     0.25490
C2332       C  0.91378413  0.65394192  0.88721744    -0.22620
C2333       C  0.93630838  0.67073992  0.91693810     0.20390
C2334       C  0.96335707  0.69843556  0.90982231     0.25430
C2335       C  0.96618533  0.71371487  0.87417082    -0.22570
C2336       C  0.93754374  0.70470674  0.84732496     0.20330
F2337       F  0.93781113  0.72142851  0.81333007    -0.12520
F2338       F  0.88495328  0.66601953  0.82700368    -0.14890
F2339       F  0.98792678  0.70949919  0.93771745    -0.14890
F2340       F  0.93103700  0.66197613  0.95371891    -0.12520
C2341       C  0.81706006  0.65786435  0.96404144     0.25490
C2342       C  0.79078269  0.62783667  0.96493859    -0.22620
C2343       C  0.79004724  0.60341535  0.93339809     0.20390
C2344       C  0.81536008  0.60898259  0.90359485     0.25430
C2345       C  0.84967106  0.62939207  0.90964533    -0.22570
C2346       C  0.84637357  0.65845484  0.93740650     0.20330
F2347       F  0.86732924  0.69048818  0.93612594    -0.12520
F2348       F  0.81458440  0.68708329  0.98869457    -0.14890
F2349       F  0.80420248  0.59724397  0.86865380    -0.14890
F2350       F  0.76756822  0.57253567  0.93181737    -0.12520
C2351       C  0.85944692  0.53448412  0.82463742     0.25490
C2352       C  0.88580647  0.53608763  0.79510978    -0.22620
C2353       C  0.91470776  0.56383538  0.79782960     0.20390
C2354       C  0.91550794  0.59023350  0.82800901     0.25430
C2355       C  0.88770140  0.58960300  0.85732332    -0.22570
C2356       C  0.86380310  0.55699823  0.85671218     0.20330
F2357       F  0.84534570  0.54463760  0.88771928    -0.12520
F2358       F  0.83069780  0.50869259  0.82438104    -0.14890
F2359       F  0.94701834  0.61243252  0.83093942    -0.14890
F2360       F  0.94455343  0.56329482  0.77367326    -0.12520
C2361       C  0.70437316  0.90906861  0.55159698     0.25490
C2362       C  0.71218507  0.87485133  0.53370572    -0.22620
C2363       C  0.68997205  0.84335984  0.54322542     0.20390
C2364       C  0.65856517  0.84660507  0.56767367     0.25430
C2365       C  0.64833156  0.88194318  0.58339898    -0.22570
C2366       C  0.67365172  0.91255774  0.57616835     0.20330
F2367       F  0.66818540  0.94697148  0.59196967    -0.12520
F2368       F  0.72427967  0.94044916  0.54287726    -0.14890
F2369       F  0.63749407  0.81517539  0.57365255    -0.14890
F2370       F  0.69721268  0.80957049  0.52692355    -0.12520
C2371       C  0.69875632  0.84640099  0.94412044     0.25490
C2372       C  0.71312504  0.87802958  0.96351131    -0.22620
C2373       C  0.70225869  0.91355144  0.95198480     0.20390
C2374       C  0.67504539  0.91732663  0.92381886     0.25430
C2375       C  0.65421236  0.88571255  0.90961341    -0.22570
C2376       C  0.66982840  0.85001739  0.91713394     0.20330
F2377       F  0.65784591  0.81845004  0.89855164    -0.12520
F2378       F  0.71169131  0.81185159  0.95229907    -0.14890
F2379       F  0.66943463  0.95220857  0.91052600    -0.14890
F2380       F  0.71657216  0.94494337  0.96913478    -0.12520
C2381       C  0.92792929  0.93132402  0.66193294     0.25490
C2382       C  0.89370387  0.91587302  0.64614979    -0.22620
C2383       C  0.85910060  0.92451579  0.66495538     0.20390
C2384       C  0.85822648  0.95270826  0.69288543     0.25430
C2385       C  0.89212954  0.96974425  0.70627333    -0.22570
C2386       C  0.92707983  0.95697393  0.69219521     0.20330
F2387       F  0.96056880  0.97008711  0.70696220    -0.12520
F2388       F  0.96249559  0.92160008  0.64784316    -0.14890
F2389       F  0.82386963  0.96439146  0.70574762    -0.14890
F2390       F  0.82571404  0.90658235  0.65622769    -0.12520
C2391       C  0.92684933  0.82990882  0.58537858     0.25490
C2392       C  0.91693107  0.85352269  0.61635124    -0.22620
C2393       C  0.92860635  0.84130578  0.65262614     0.20390
C2394       C  0.95442734  0.81175391  0.65649398     0.25430
C2395       C  0.96675059  0.79094273  0.62508325    -0.22570
C2396       C  0.95012209  0.79864962  0.58991994     0.20330
F2397       F  0.95729917  0.77691682  0.55920478    -0.12520
F2398       F  0.91437556  0.83737639  0.55005118    -0.14890
F2399       F  0.96828113  0.80399980  0.69120926    -0.14890
F2400       F  0.91570245  0.85757995  0.68486258    -0.12520
C2401       C  0.83463710  0.91728393  0.57783548     0.25490
C2402       C  0.85531339  0.88564485  0.59004878    -0.22620
C2403       C  0.83914291  0.85013861  0.57977031     0.20390
C2404       C  0.81108490  0.84700373  0.55125300     0.25430
C2405       C  0.79752781  0.87906265  0.53357323    -0.22570
C2406       C  0.80845598  0.91418986  0.54828594     0.20330
F2407       F  0.79544695  0.94603463  0.53289813    -0.12520
F2408       F  0.84093409  0.95199224  0.59307755    -0.14890
F2409       F  0.79834871  0.81256605  0.53984113    -0.14890
F2410       F  0.85001175  0.81836369  0.59686357    -0.12520
C2411       C  0.81096290  0.84620969  0.94469603     0.25490
C2412       C  0.79627766  0.87860653  0.96188218    -0.22620
C2413       C  0.80392476  0.91315397  0.94504807     0.20390
C2414       C  0.82931797  0.91563505  0.91478950     0.25430
C2415       C  0.85117603  0.88431744  0.90320394    -0.22570
C2416       C  0.83716130  0.84883034  0.91483710     0.20330
F2417       F  0.84902638  0.81651843  0.89832562    -0.12520
F2418       F  0.80109502  0.81198710  0.95780728    -0.14890
F2419       F  0.83487513  0.94965358  0.89908625    -0.14890
F2420       F  0.78871058  0.94511536  0.95905978    -0.12520
C2421       C  0.85864545  0.91806224  0.82564459     0.25490
C2422       C  0.89147802  0.91385729  0.84850426    -0.22620
C2423       C  0.92581638  0.93156149  0.83617551     0.20390
C2424       C  0.92539457  0.95789734  0.80758380     0.25430
C2425       C  0.89140572  0.96582969  0.78870159    -0.22570
C2426       C  0.85877223  0.94360106  0.79597968     0.20330
F2427       F  0.82565307  0.94946895  0.77723195    -0.12520
F2428       F  0.82613759  0.89808470  0.83204506    -0.14890
F2429       F  0.95790121  0.97747596  0.79988513    -0.14890
F2430       F  0.95987137  0.92461699  0.85290926    -0.12520
C2431       C  0.95331527  0.81127855  0.84014647     0.25490
C2432       C  0.96787183  0.79411418  0.87221082    -0.22620
C2433       C  0.95192610  0.80308184  0.90735179     0.20390
C2434       C  0.92540659  0.83189657  0.91089235     0.25430
C2435       C  0.91404627  0.85309340  0.87924007    -0.22570
C2436       C  0.92613182  0.83961098  0.84330490     0.20330
F2437       F  0.91246392  0.85367843  0.81079276    -0.12520
F2438       F  0.96663625  0.80154424  0.80552117    -0.14890
F2439       F  0.91238086  0.84047400  0.94599047    -0.14890
F2440       F  0.96315185  0.78513372  0.93873991    -0.12520
loop_ 
_geom_bond_atom_site_label_1 
_geom_bond_atom_site_label_2 
_geom_bond_distance 
_geom_bond_site_symmetry_2 
_ccdc_geom_bond_type 
N1            N2   1.319       .  A
N1            N7   1.314       .  A
N1          Mn30   2.169   1_454  S
N2            C9   1.352       .  A
N3            N5   1.314       .  A
N3            N4   1.308       .  A
N3         Mn934   2.190       .  S
N4           C10   1.353       .  A
N5            N6   1.325       .  A
N5         Mn335   2.183   1_455  S
N6           C10   1.354       .  A
N7            N8   1.310       .  A
N7         Mn629   2.180   1_554  S
N8            C9   1.353       .  A
C9           C62   1.510       .  S
C10          C59   1.522       .  S
N11          N17   1.312       .  A
N11          N12   1.319       .  A
N11       Mn1261   2.186       .  S
N12          C20   1.356       .  A
N13          N14   1.331       .  A
N13          N15   1.307       .  A
N13         Mn19   2.214   1_554  S
N14          C21   1.369       .  A
N15          N16   1.300       .  A
N15       Mn1566   2.162   1_554  S
N16          C21   1.336       .  A
N17          N18   1.320       .  A
N17        Mn324   2.214       .  S
N18          C20   1.357       .  A
Mn19        N918   2.190       .  S
Mn19        N617   2.180   1_556  S
Mn19        N322   2.214       .  S
Mn19       Cl653   2.539       .  S
C20          C56   1.559       .  S
C21          C63   1.566       .  S
N22          N23   1.310       .  A
N22          N28   1.312       .  A
N22       Mn1555   2.175       .  S
N23          C31   1.349       .  A
N24          N26   1.313       .  A
N24          N25   1.318       .  A
N24        Mn347   2.195   1_554  S
N25          C32   1.354       .  A
N26          N27   1.320       .  A
N26       Mn1250   2.206   1_554  S
N27          C32   1.359       .  A
N28          N29   1.327       .  A
N28         Mn42   2.226       .  S
N29          C31   1.364       .  A
Mn30        N310   2.183   1_655  S
Mn30       N1547   2.175       .  S
Mn30       N1246   2.206   1_556  S
Mn30        Cl43   2.532   1_655  S
C31          C50   1.550       .  S
C32          C53   1.562       .  S
N33          N34   1.324       .  A
N33          N39   1.313       .  A
N33        Mn346   2.197   1_554  S
N34          C44   1.357       .  A
N35          N36   1.320       .  A
N35          N37   1.314       .  A
N35        Mn652   2.223       .  S
N36          C45   1.360       .  A
N37          N38   1.314       .  A
N37         Mn41   2.162       .  S
N38          C45   1.350       .  A
N39          N40   1.315       .  A
N39        Mn957   2.213   1_554  S
N40          C44   1.355       .  A
Mn41       N1231   2.186       .  S
Mn41       N1540   2.162       .  S
Mn41        N338   2.197       .  S
Mn41      Cl2178   2.530       .  S
Mn42        N329   2.195       .  S
Mn42        N645   2.223   1_545  S
Mn42        N954   2.213   1_545  S
Mn42      Cl1568   2.548       .  S
Cl43       Mn629   2.539       .  S
Cl43      Mn2176   2.530   1_545  S
Cl43      Mn1567   2.548   1_455  S
C44          C47   1.554       .  S
C45          C46   1.545       .  S
C46         C280   1.573       .  S
C46         C287   1.559       .  S
C46         C300   1.573       .  S
C47         C247   1.559       .  S
C47         C257   1.579       .  S
C47         C267   1.577       .  S
C48          C49   1.363       .  D
C48         C277   1.501       .  S
C48         C575   1.491       .  S
C49         C237   1.480       .  S
C49         C532   1.495       .  S
C50         C197   1.581       .  S
C50         C210   1.586       .  S
C50         C220   1.586       .  S
C51          C52   1.369       .  D
C51         C217   1.508       .  S
C51         C900   1.501   1_545  S
C52         C187   1.497       .  S
C52         C860   1.494   1_545  S
C53         C167   1.570       .  S
C53         C177   1.569       .  S
C53         C190   1.560       .  S
C54          C55   1.368       .  D
C54         C157   1.503       .  S
C54         C455   1.501       .  S
C55         C207   1.504       .  S
C55         C485   1.495       .  S
C56         C127   1.544       .  S
C56         C137   1.564       .  S
C56         C240   1.560       .  S
C57          C58   1.368       .  D
C57         C120   1.538       .  S
C57        C1420   1.500   1_455  S
C58         C140   1.474       .  S
C58        C1517   1.497   1_455  S
C59         C107   1.558       .  S
C59         C117   1.581       .  S
C59         C160   1.579       .  S
C60          C61   1.352       .  D
C60         C130   1.485       .  S
C60         C720   1.489       .  S
C61          C87   1.492       .  S
C61         C707   1.488       .  S
C62          C80   1.574       .  S
C62         C100   1.551       .  S
C62         C147   1.568       .  S
C63          C70   1.594       .  S
C63          C90   1.546       .  S
C63         C230   1.565       .  S
C64          C65   1.371   1_455  D
C64          C67   1.483       .  S
C64        C1480   1.514   1_455  S
C65          C77   1.544   1_655  S
C65        C1390   1.507       .  S
C66          C67   1.392       .  A
C66          C71   1.372       .  A
C66          F73   1.354       .  S
C67          C68   1.412       .  A
C68          C69   1.423       .  A
C68          F75   1.356       .  S
C69          C70   1.435       .  A
C69          F74   1.356       .  S
C70          C71   1.419       .  A
C71          F72   1.361       .  S
C76          C77   1.411       .  A
C76          C81   1.385       .  A
C76          F83   1.350   1_455  S
C77          C78   1.432       .  A
C78          C79   1.410       .  A
C78          F85   1.346       .  S
C79          C80   1.409       .  A
C79          F84   1.357       .  S
C80          C81   1.416       .  A
C81          F82   1.343       .  S
C86          C87   1.407       .  A
C86          C91   1.390       .  A
C86          F93   1.352       .  S
C87          C88   1.398       .  A
C88          C89   1.400       .  A
C88          F95   1.357       .  S
C89          C90   1.425       .  A
C89          F94   1.356       .  S
C90          C91   1.409       .  A
C91          F92   1.358       .  S
C96          C97   1.409       .  A
C96         C101   1.408       .  A
C96         F103   1.353       .  S
C97         C671   1.488   1_545  S
C97          C98   1.390       .  A
C98          C99   1.374       .  A
C98         F105   1.351       .  S
C99         C100   1.423       .  A
C99         F104   1.359       .  S
C100        C101   1.416       .  A
C101        F102   1.357       .  S
C106        C107   1.419       .  A
C106        C111   1.409       .  A
C106        F113   1.357       .  S
C107        C108   1.425       .  A
C108        C109   1.378       .  A
C108        F115   1.359       .  S
C109        C110   1.392       .  A
C109        F114   1.353       .  S
C110        C670   1.489   1_545  S
C110        C111   1.408       .  A
C111        F112   1.354       .  S
C116        C117   1.420       .  A
C116        C121   1.388       .  A
C116        F123   1.342       .  S
C117        C118   1.417       .  A
C118        C119   1.415       .  A
C118        F125   1.357       .  S
C119        C120   1.426       .  A
C119        F124   1.346       .  S
C120        C121   1.403       .  A
C121        F122   1.353   1_455  S
C126        C127   1.423       .  A
C126        C131   1.400       .  A
C126        F133   1.356       .  S
C127        C128   1.413       .  A
C128        C129   1.384       .  A
C128        F135   1.359       .  S
C129        C130   1.403       .  A
C129        F134   1.351       .  S
C130        C131   1.398       .  A
C131        F132   1.357       .  S
C136        C137   1.418       .  A
C136        C141   1.393       .  A
C136        F143   1.360       .  S
C137        C138   1.424       .  A
C138        C139   1.400       .  A
C138        F145   1.357       .  S
C139        C140   1.398       .  A
C139        F144   1.357       .  S
C140        C141   1.403       .  A
C141        F142   1.356       .  S
C146        C147   1.433       .  A
C146        C151   1.407       .  A
C146        F153   1.357       .  S
C147        C148   1.420       .  A
C148        C149   1.387       .  A
C148        F155   1.356       .  S
C149        C150   1.397       .  A
C149        F154   1.350       .  S
C150        C359   1.501   1_554  S
C150        C151   1.403       .  A
C151        F152   1.355       .  S
C156        C157   1.400       .  A
C156        C161   1.398       .  A
C156        F163   1.353       .  S
C157        C158   1.402       .  A
C158        C159   1.403       .  A
C158        F165   1.359       .  S
C159        C160   1.433       .  A
C159        F164   1.358       .  S
C160        C161   1.423       .  A
C161        F162   1.355       .  S
C166        C167   1.420       .  A
C166        C171   1.410       .  A
C166        F173   1.356       .  S
C167        C168   1.419       .  A
C168        C169   1.399       .  A
C168        F175   1.359       .  S
C169        C170   1.402       .  A
C169        F174   1.357       .  S
C170       C1285   1.507       .  S
C170        C171   1.407       .  A
C171        F172   1.357       .  S
C176        C177   1.421       .  A
C176        C181   1.397       .  A
C176        F183   1.358       .  S
C177        C178   1.423       .  A
C178        C179   1.405       .  A
C178        F185   1.356       .  S
C179        C180   1.404       .  A
C179        F184   1.357       .  S
C180        C360   1.495   1_554  S
C180        C181   1.399       .  A
C181        F182   1.358       .  S
C186        C187   1.404       .  A
C186        C191   1.397       .  A
C186        F193   1.356       .  S
C187        C188   1.405       .  A
C188        C189   1.409       .  A
C188        F195   1.357       .  S
C189        C190   1.421       .  A
C189        F194   1.356       .  S
C190        C191   1.417       .  A
C191        F192   1.356       .  S
C196        C197   1.419       .  A
C196        C201   1.414       .  A
C196        F203   1.357       .  S
C197        C198   1.432       .  A
C198        C199   1.387       .  A
C198        F205   1.361       .  S
C199        C200   1.391       .  A
C199        F204   1.359       .  S
C200       C1277   1.500       .  S
C200        C201   1.410       .  A
C201        F202   1.357       .  S
C206        C207   1.404       .  A
C206        C211   1.398       .  A
C206        F213   1.354       .  S
C207        C208   1.407       .  A
C208        C209   1.398       .  A
C208        F215   1.346       .  S
C209        C210   1.410       .  A
C209        F214   1.356       .  S
C210        C211   1.424       .  A
C211        F212   1.352       .  S
C216        C217   1.400       .  A
C216        C221   1.388       .  A
C216        F223   1.355       .  S
C217        C218   1.408       .  A
C218        C219   1.414       .  A
C218        F225   1.354       .  S
C219        C220   1.428       .  A
C219        F224   1.352       .  S
C220        C221   1.424       .  A
C221        F222   1.356       .  S
C226        C227   1.398       .  A
C226        C231   1.392       .  A
C226        F233   1.353       .  S
C227        C354   1.495   1_554  S
C227        C228   1.406       .  A
C228        C229   1.408       .  A
C228        F235   1.357       .  S
C229        C230   1.422       .  A
C229        F234   1.355       .  S
C230        C231   1.426       .  A
C231        F232   1.358       .  S
C236        C237   1.399       .  A
C236        C241   1.400       .  A
C236        F243   1.357       .  S
C237        C238   1.398       .  A
C238        C239   1.388       .  A
C238        F245   1.355       .  S
C239        C240   1.419       .  A
C239        F244   1.358       .  S
C240        C241   1.424       .  A
C241        F242   1.356       .  S
C246        C247   1.421       .  A
C246        C251   1.400       .  A
C246        F253   1.358       .  S
C247        C248   1.420       .  A
C248        C249   1.401       .  A
C248        F255   1.357       .  S
C249        C250   1.403       .  A
C249        F254   1.356       .  S
C250        C662   1.494       .  S
C250        C251   1.402       .  A
C251        F252   1.356       .  S
C256        C257   1.420       .  A
C256        C261   1.403       .  A
C256        F263   1.359       .  S
C257        C258   1.428       .  A
C258        C259   1.408       .  A
C258        F265   1.356       .  S
C259        C260   1.401       .  A
C259        F264   1.358       .  S
C260       C1284   1.514       .  S
C260        C261   1.409       .  A
C261        F262   1.353       .  S
C266        C267   1.424       .  A
C266        C271   1.392       .  A
C266        F273   1.358       .  S
C267        C268   1.423       .  A
C268        C269   1.410       .  A
C268        F275   1.356       .  S
C269        C270   1.404       .  A
C269        F274   1.357       .  S
C270        C353   1.491   1_554  S
C270        C271   1.398       .  A
C271        F272   1.355       .  S
C276        C277   1.403       .  A
C276        C281   1.408       .  A
C276        F283   1.357       .  S
C277        C278   1.404       .  A
C278        C279   1.400       .  A
C278        F285   1.354       .  S
C279        C280   1.420       .  A
C279        F284   1.358       .  S
C280        C281   1.422       .  A
C281        F282   1.356       .  S
C286        C287   1.416       .  A
C286        C291   1.406       .  A
C286        F293   1.356       .  S
C287        C288   1.424       .  A
C288        C289   1.397       .  A
C288        F295   1.358       .  S
C289        C290   1.398       .  A
C289        F294   1.358       .  S
C290        C661   1.501       .  S
C290        C291   1.409       .  A
C291        F292   1.355       .  S
C296        C297   1.401       .  A
C296        C301   1.402       .  A
C296        F303   1.357       .  S
C297       C1278   1.497       .  S
C297        C298   1.402       .  A
C298        C299   1.400       .  A
C298        F305   1.356       .  S
C299        C300   1.425       .  A
C299        F304   1.359       .  S
C300        C301   1.423       .  A
C301        F302   1.356       .  S
N306        N307   1.319       .  A
N306        N312   1.314       .  A
N306       Mn335   2.169   1_455  S
N307        C314   1.352       .  A
N308        N310   1.314       .  A
N308        N309   1.308       .  A
N308       Mn629   2.190       .  S
N309        C315   1.353       .  A
N310        N311   1.325       .  A
N311        C315   1.354       .  A
N312        N313   1.310       .  A
N312       Mn934   2.180       .  S
N313        C314   1.353       .  A
C314        C367   1.510       .  S
C315        C364   1.522       .  S
N316        N322   1.312       .  A
N316        N317   1.319       .  A
N316      Mn1566   2.186       .  S
N317        C325   1.356       .  A
N318        N319   1.331       .  A
N318        N320   1.307       .  A
N318       Mn324   2.214       .  S
N319        C326   1.369       .  A
N320        N321   1.300       .  A
N320      Mn1261   2.162       .  S
N321        C326   1.336       .  A
N322        N323   1.320       .  A
N323        C325   1.357       .  A
Mn324       N613   2.190       .  S
Mn324       N922   2.180       .  S
Mn324      Cl958   2.539       .  S
C325        C361   1.559       .  S
C326        C368   1.566       .  S
N327        N328   1.310       .  A
N327        N333   1.312       .  A
N327      Mn1250   2.175       .  S
N328        C336   1.349       .  A
N329        N331   1.313       .  A
N329        N330   1.318       .  A
N330        C337   1.354       .  A
N331        N332   1.320       .  A
N331      Mn1555   2.206       .  S
N332        C337   1.359       .  A
N333        N334   1.327       .  A
N333       Mn347   2.226       .  S
N334        C336   1.364       .  A
Mn335      N1242   2.175       .  S
Mn335      N1551   2.206       .  S
Mn335      Cl348   2.532   1_655  S
C336        C355   1.550       .  S
C337        C358   1.562       .  S
N338        N339   1.324       .  A
N338        N344   1.313       .  A
N339        C349   1.357       .  A
N340        N341   1.320       .  A
N340        N342   1.314       .  A
N340       Mn957   2.223       .  S
N341        C350   1.360       .  A
N342        N343   1.314       .  A
N342       Mn346   2.162       .  S
N343        C350   1.350       .  A
N344        N345   1.315       .  A
N344       Mn652   2.213       .  S
N345        C349   1.355       .  A
Mn346      N1536   2.186       .  S
Mn346      N1235   2.162   1_556  S
Mn346     Cl1873   2.530       .  S
Mn347       N950   2.223   1_545  S
Mn347       N649   2.213   1_546  S
Mn347     Cl1263   2.548       .  S
Cl348      Mn934   2.539       .  S
Cl348     Mn1871   2.530   1_545  S
Cl348     Mn1262   2.548   1_455  S
C349        C352   1.554       .  S
C350        C351   1.545       .  S
C351        C585   1.573       .  S
C351        C592   1.559       .  S
C351        C605   1.573       .  S
C352        C552   1.559       .  S
C352        C562   1.579       .  S
C352        C572   1.577       .  S
C353        C354   1.363       .  D
C353        C582   1.501       .  S
C354        C542   1.480       .  S
C355        C502   1.581       .  S
C355        C515   1.586       .  S
C355        C525   1.586       .  S
C356        C357   1.369       .  D
C356        C522   1.508       .  S
C356       C1205   1.501   1_545  S
C357        C492   1.497       .  S
C357       C1165   1.494   1_545  S
C358        C472   1.570       .  S
C358        C482   1.569       .  S
C358        C495   1.560       .  S
C359        C360   1.368       .  D
C359        C462   1.503       .  S
C360        C512   1.504       .  S
C361        C432   1.544       .  S
C361        C442   1.564       .  S
C361        C545   1.560       .  S
C362        C363   1.368       .  D
C362        C425   1.538       .  S
C362       C1725   1.500   1_455  S
C363        C445   1.474       .  S
C363       C1822   1.497   1_455  S
C364        C412   1.558       .  S
C364        C422   1.581       .  S
C364        C465   1.579       .  S
C365        C366   1.352       .  D
C365       C1025   1.489       .  S
C365        C435   1.485       .  S
C366        C392   1.492       .  S
C366       C1012   1.488       .  S
C367        C385   1.574       .  S
C367        C405   1.551       .  S
C367        C452   1.568       .  S
C368        C375   1.594       .  S
C368        C395   1.546       .  S
C368        C535   1.565       .  S
C369        C370   1.371   1_455  D
C369        C372   1.483       .  S
C369       C1785   1.514   1_455  S
C370        C382   1.544   1_655  S
C370       C1695   1.507       .  S
C371        C372   1.392       .  A
C371        C376   1.372       .  A
C371        F378   1.354       .  S
C372        C373   1.412       .  A
C373        C374   1.423       .  A
C373        F380   1.356       .  S
C374        C375   1.435       .  A
C374        F379   1.356       .  S
C375        C376   1.419       .  A
C376        F377   1.361       .  S
C381        C382   1.411       .  A
C381        C386   1.385       .  A
C381        F388   1.350   1_455  S
C382        C383   1.432       .  A
C383        C384   1.410       .  A
C383        F390   1.346       .  S
C384        C385   1.409       .  A
C384        F389   1.357       .  S
C385        C386   1.416       .  A
C386        F387   1.343       .  S
C391        C392   1.407       .  A
C391        C396   1.390       .  A
C391        F398   1.352       .  S
C392        C393   1.398       .  A
C393        C394   1.400       .  A
C393        F400   1.357       .  S
C394        C395   1.425       .  A
C394        F399   1.356       .  S
C395        C396   1.409       .  A
C396        F397   1.358       .  S
C401        C402   1.409       .  A
C401        C406   1.408       .  A
C401        F408   1.353       .  S
C402        C976   1.488   1_545  S
C402        C403   1.390       .  A
C403        C404   1.374       .  A
C403        F410   1.351       .  S
C404        C405   1.423       .  A
C404        F409   1.359       .  S
C405        C406   1.416       .  A
C406        F407   1.357       .  S
C411        C412   1.419       .  A
C411        C416   1.409       .  A
C411        F418   1.357       .  S
C412        C413   1.425       .  A
C413        C414   1.378       .  A
C413        F420   1.359       .  S
C414        C415   1.392       .  A
C414        F419   1.353       .  S
C415        C975   1.489   1_545  S
C415        C416   1.408       .  A
C416        F417   1.354       .  S
C421        C422   1.420       .  A
C421        C426   1.388       .  A
C421        F428   1.342       .  S
C422        C423   1.417       .  A
C423        C424   1.415       .  A
C423        F430   1.357       .  S
C424        C425   1.426       .  A
C424        F429   1.346       .  S
C425        C426   1.403       .  A
C426        F427   1.353   1_455  S
C431        C432   1.423       .  A
C431        C436   1.400       .  A
C431        F438   1.356       .  S
C432        C433   1.413       .  A
C433        C434   1.384       .  A
C433        F440   1.359       .  S
C434        C435   1.403       .  A
C434        F439   1.351       .  S
C435        C436   1.398       .  A
C436        F437   1.357       .  S
C441        C442   1.418       .  A
C441        C446   1.393       .  A
C441        F448   1.360       .  S
C442        C443   1.424       .  A
C443        C444   1.400       .  A
C443        F450   1.357       .  S
C444        C445   1.398       .  A
C444        F449   1.357       .  S
C445        C446   1.403       .  A
C446        F447   1.356       .  S
C451        C452   1.433       .  A
C451        C456   1.407       .  A
C451        F458   1.357       .  S
C452        C453   1.420       .  A
C453        C454   1.387       .  A
C453        F460   1.356       .  S
C454        C455   1.397       .  A
C454        F459   1.350       .  S
C455        C456   1.403       .  A
C456        F457   1.355       .  S
C461        C462   1.400       .  A
C461        C466   1.398       .  A
C461        F468   1.353       .  S
C462        C463   1.402       .  A
C463        C464   1.403       .  A
C463        F470   1.359       .  S
C464        C465   1.433       .  A
C464        F469   1.358       .  S
C465        C466   1.423       .  A
C466        F467   1.355       .  S
C471        C472   1.420       .  A
C471        C476   1.410       .  A
C471        F478   1.356       .  S
C472        C473   1.419       .  A
C473        C474   1.399       .  A
C473        F480   1.359       .  S
C474        C475   1.402       .  A
C474        F479   1.357       .  S
C475       C1590   1.507       .  S
C475        C476   1.407       .  A
C476        F477   1.357       .  S
C481        C482   1.421       .  A
C481        C486   1.397       .  A
C481        F488   1.358       .  S
C482        C483   1.423       .  A
C483        C484   1.405       .  A
C483        F490   1.356       .  S
C484        C485   1.404       .  A
C484        F489   1.357       .  S
C485        C486   1.399       .  A
C486        F487   1.358       .  S
C491        C492   1.404       .  A
C491        C496   1.397       .  A
C491        F498   1.356       .  S
C492        C493   1.405       .  A
C493        C494   1.409       .  A
C493        F500   1.357       .  S
C494        C495   1.421       .  A
C494        F499   1.356       .  S
C495        C496   1.417       .  A
C496        F497   1.356       .  S
C501        C502   1.419       .  A
C501        C506   1.414       .  A
C501        F508   1.357       .  S
C502        C503   1.432       .  A
C503        C504   1.387       .  A
C503        F510   1.361       .  S
C504        C505   1.391       .  A
C504        F509   1.359       .  S
C505       C1582   1.500       .  S
C505        C506   1.410       .  A
C506        F507   1.357       .  S
C511        C512   1.404       .  A
C511        C516   1.398       .  A
C511        F518   1.354       .  S
C512        C513   1.407       .  A
C513        C514   1.398       .  A
C513        F520   1.346       .  S
C514        C515   1.410       .  A
C514        F519   1.356       .  S
C515        C516   1.424       .  A
C516        F517   1.352       .  S
C521        C522   1.400       .  A
C521        C526   1.389       .  A
C521        F528   1.355       .  S
C522        C523   1.408       .  A
C523        C524   1.414       .  A
C523        F530   1.354       .  S
C524        C525   1.428       .  A
C524        F529   1.352       .  S
C525        C526   1.424       .  A
C526        F527   1.356       .  S
C531        C532   1.398       .  A
C531        C536   1.392       .  A
C531        F538   1.353       .  S
C532        C533   1.406       .  A
C533        C534   1.408       .  A
C533        F540   1.357       .  S
C534        C535   1.422       .  A
C534        F539   1.355       .  S
C535        C536   1.426       .  A
C536        F537   1.358       .  S
C541        C542   1.399       .  A
C541        C546   1.400       .  A
C541        F548   1.357       .  S
C542        C543   1.398       .  A
C543        C544   1.388       .  A
C543        F550   1.355       .  S
C544        C545   1.419       .  A
C544        F549   1.358       .  S
C545        C546   1.424       .  A
C546        F547   1.356       .  S
C551        C552   1.421       .  A
C551        C556   1.400       .  A
C551        F558   1.358       .  S
C552        C553   1.420       .  A
C553        C554   1.401       .  A
C553        F560   1.357       .  S
C554        C555   1.403       .  A
C554        F559   1.356       .  S
C555        C967   1.494       .  S
C555        C556   1.402       .  A
C556        F557   1.356       .  S
C561        C562   1.420       .  A
C561        C566   1.403       .  A
C561        F568   1.359       .  S
C562        C563   1.428       .  A
C563        C564   1.408       .  A
C563        F570   1.356       .  S
C564        C565   1.401       .  A
C564        F569   1.358       .  S
C565       C1589   1.514       .  S
C565        C566   1.409       .  A
C566        F567   1.353       .  S
C571        C572   1.424       .  A
C571        C576   1.392       .  A
C571        F578   1.358       .  S
C572        C573   1.423       .  A
C573        C574   1.410       .  A
C573        F580   1.356       .  S
C574        C575   1.404       .  A
C574        F579   1.357       .  S
C575        C576   1.398       .  A
C576        F577   1.355       .  S
C581        C582   1.403       .  A
C581        C586   1.408       .  A
C581        F588   1.357       .  S
C582        C583   1.404       .  A
C583        C584   1.400       .  A
C583        F590   1.354       .  S
C584        C585   1.420       .  A
C584        F589   1.358       .  S
C585        C586   1.422       .  A
C586        F587   1.356       .  S
C591        C592   1.416       .  A
C591        C596   1.406       .  A
C591        F598   1.356       .  S
C592        C593   1.424       .  A
C593        C594   1.397       .  A
C593        F600   1.358       .  S
C594        C595   1.398       .  A
C594        F599   1.358       .  S
C595        C966   1.501       .  S
C595        C596   1.409       .  A
C596        F597   1.355       .  S
C601        C602   1.401       .  A
C601        C606   1.402       .  A
C601        F608   1.357       .  S
C602       C1583   1.497       .  S
C602        C603   1.402       .  A
C603        C604   1.400       .  A
C603        F610   1.356       .  S
C604        C605   1.425       .  A
C604        F609   1.359       .  S
C605        C606   1.423       .  A
C606        F607   1.356       .  S
N611        N612   1.319       .  A
N611        N617   1.314       .  A
N611       Mn640   2.169   1_454  S
N612        C619   1.352       .  A
N613        N615   1.314       .  A
N613        N614   1.308       .  A
N614        C620   1.353       .  A
N615        N616   1.325       .  A
N615       Mn945   2.183   1_455  S
N616        C620   1.354       .  A
N617        N618   1.310       .  A
N618        C619   1.353       .  A
C619        C672   1.510       .  S
C620        C669   1.522       .  S
N621        N627   1.312       .  A
N621        N622   1.319       .  A
N621      Mn1871   2.186       .  S
N622        C630   1.356       .  A
N623        N624   1.331       .  A
N623        N625   1.307       .  A
N623       Mn629   2.214   1_564  S
N624        C631   1.369       .  A
N625        N626   1.300       .  A
N625      Mn2176   2.162   1_554  S
N626        C631   1.336       .  A
N627        N628   1.320       .  A
N627       Mn934   2.214   1_565  S
N628        C630   1.357       .  A
Mn629       N932   2.214   1_545  S
C630        C666   1.559       .  S
C631        C673   1.566       .  S
N632        N633   1.310       .  A
N632        N638   1.312       .  A
N632      Mn2165   2.175       .  S
N633        C641   1.349       .  A
N634        N636   1.313       .  A
N634        N635   1.318       .  A
N634       Mn957   2.195   1_554  S
N635        C642   1.354       .  A
N636        N637   1.320       .  A
N636      Mn1860   2.206   1_554  S
N637        C642   1.359       .  A
N638        N639   1.327       .  A
N638       Mn652   2.226       .  S
N639        C641   1.364       .  A
Mn640       N920   2.183   1_655  S
Mn640      N2157   2.175       .  S
Mn640      N1856   2.206   1_556  S
Mn640      Cl653   2.532   1_655  S
C641        C660   1.550       .  S
C642        C663   1.562       .  S
N643        N644   1.324       .  A
N643        N649   1.313       .  A
N643       Mn956   2.197   1_554  S
N644        C654   1.357       .  A
N645        N646   1.320       .  A
N645        N647   1.314       .  A
N646        C655   1.360       .  A
N647        N648   1.314       .  A
N647       Mn651   2.162       .  S
N648        C655   1.350       .  A
N649        N650   1.315       .  A
N650        C654   1.355       .  A
Mn651      N1841   2.186       .  S
Mn651      N2150   2.162       .  S
Mn651       N948   2.197       .  S
Mn651     Cl1568   2.530   1_565  S
Mn652       N939   2.195       .  S
Mn652     Cl2178   2.548       .  S
Cl653     Mn1566   2.530       .  S
Cl653     Mn2177   2.548   1_455  S
C654        C657   1.554       .  S
C655        C656   1.545       .  S
C656        C890   1.573       .  S
C656        C897   1.559       .  S
C656        C910   1.573       .  S
C657        C857   1.559       .  S
C657        C867   1.579       .  S
C657        C877   1.577       .  S
C658        C659   1.363       .  D
C658       C1185   1.491       .  S
C658        C887   1.501       .  S
C659       C1142   1.495       .  S
C659        C847   1.480       .  S
C660        C807   1.581       .  S
C660        C820   1.586       .  S
C660        C830   1.586       .  S
C661        C662   1.369       .  D
C661        C827   1.508       .  S
C662        C797   1.497       .  S
C663        C777   1.570       .  S
C663        C787   1.569       .  S
C663        C800   1.560       .  S
C664        C665   1.368       .  D
C664       C1065   1.501       .  S
C664        C767   1.503       .  S
C665       C1095   1.495       .  S
C665        C817   1.504       .  S
C666        C737   1.544       .  S
C666        C747   1.564       .  S
C666        C850   1.560       .  S
C667        C668   1.368       .  D
C667        C730   1.538       .  S
C667       C2030   1.500   1_455  S
C668        C750   1.474       .  S
C668       C2127   1.497   1_455  S
C669        C717   1.558       .  S
C669        C727   1.581       .  S
C669        C770   1.579       .  S
C670        C671   1.352       .  D
C670        C740   1.485       .  S
C671        C697   1.492       .  S
C672        C690   1.574       .  S
C672        C710   1.551       .  S
C672        C757   1.568       .  S
C673        C680   1.594       .  S
C673        C700   1.546       .  S
C673        C840   1.565       .  S
C674        C675   1.371   1_455  D
C674        C677   1.483       .  S
C674       C2090   1.514   1_455  S
C675        C687   1.544   1_655  S
C675       C2000   1.507       .  S
C676        C677   1.392       .  A
C676        C681   1.372       .  A
C676        F683   1.354       .  S
C677        C678   1.412       .  A
C678        C679   1.423       .  A
C678        F685   1.356       .  S
C679        C680   1.435       .  A
C679        F684   1.356       .  S
C680        C681   1.419       .  A
C681        F682   1.361       .  S
C686        C687   1.411       .  A
C686        C691   1.385       .  A
C686        F693   1.350   1_455  S
C687        C688   1.432       .  A
C688        C689   1.410       .  A
C688        F695   1.346       .  S
C689        C690   1.409       .  A
C689        F694   1.357       .  S
C690        C691   1.416       .  A
C691        F692   1.343       .  S
C696        C697   1.407       .  A
C696        C701   1.390       .  A
C696        F703   1.352       .  S
C697        C698   1.398       .  A
C698        C699   1.400       .  A
C698        F705   1.357       .  S
C699        C700   1.425       .  A
C699        F704   1.356       .  S
C700        C701   1.409       .  A
C701        F702   1.358       .  S
C706        C707   1.409       .  A
C706        C711   1.408       .  A
C706        F713   1.353       .  S
C707        C708   1.390       .  A
C708        C709   1.374       .  A
C708        F715   1.351       .  S
C709        C710   1.423       .  A
C709        F714   1.359       .  S
C710        C711   1.416       .  A
C711        F712   1.357       .  S
C716        C717   1.419       .  A
C716        C721   1.409       .  A
C716        F723   1.357       .  S
C717        C718   1.425       .  A
C718        C719   1.378       .  A
C718        F725   1.359       .  S
C719        C720   1.392       .  A
C719        F724   1.353       .  S
C720        C721   1.408       .  A
C721        F722   1.354       .  S
C726        C727   1.420       .  A
C726        C731   1.388       .  A
C726        F733   1.342       .  S
C727        C728   1.417       .  A
C728        C729   1.415       .  A
C728        F735   1.357       .  S
C729        C730   1.426       .  A
C729        F734   1.346       .  S
C730        C731   1.403       .  A
C731        F732   1.353   1_455  S
C736        C737   1.423       .  A
C736        C741   1.400       .  A
C736        F743   1.356       .  S
C737        C738   1.413       .  A
C738        C739   1.384       .  A
C738        F745   1.359       .  S
C739        C740   1.403       .  A
C739        F744   1.351       .  S
C740        C741   1.398       .  A
C741        F742   1.357       .  S
C746        C747   1.418       .  A
C746        C751   1.393       .  A
C746        F753   1.360       .  S
C747        C748   1.424       .  A
C748        C749   1.400       .  A
C748        F755   1.357       .  S
C749        C750   1.398       .  A
C749        F754   1.357       .  S
C750        C751   1.403       .  A
C751        F752   1.356       .  S
C756        C757   1.433       .  A
C756        C761   1.407       .  A
C756        F763   1.357       .  S
C757        C758   1.420       .  A
C758        C759   1.387       .  A
C758        F765   1.356       .  S
C759        C760   1.397       .  A
C759        F764   1.350       .  S
C760        C969   1.501   1_554  S
C760        C761   1.403       .  A
C761        F762   1.355       .  S
C766        C767   1.400       .  A
C766        C771   1.398       .  A
C766        F773   1.353       .  S
C767        C768   1.402       .  A
C768        C769   1.403       .  A
C768        F775   1.359       .  S
C769        C770   1.433       .  A
C769        F774   1.358       .  S
C770        C771   1.423       .  A
C771        F772   1.355       .  S
C776        C777   1.420       .  A
C776        C781   1.410       .  A
C776        F783   1.356       .  S
C777        C778   1.419       .  A
C778        C779   1.399       .  A
C778        F785   1.359       .  S
C779        C780   1.402       .  A
C779        F784   1.357       .  S
C780       C1895   1.507       .  S
C780        C781   1.407       .  A
C781        F782   1.357       .  S
C786        C787   1.421       .  A
C786        C791   1.397       .  A
C786        F793   1.358       .  S
C787        C788   1.423       .  A
C788        C789   1.405       .  A
C788        F795   1.356       .  S
C789        C790   1.404       .  A
C789        F794   1.357       .  S
C790        C970   1.495   1_554  S
C790        C791   1.399       .  A
C791        F792   1.358       .  S
C796        C797   1.404       .  A
C796        C801   1.397       .  A
C796        F803   1.356       .  S
C797        C798   1.405       .  A
C798        C799   1.409       .  A
C798        F805   1.357       .  S
C799        C800   1.421       .  A
C799        F804   1.356       .  S
C800        C801   1.417       .  A
C801        F802   1.356       .  S
C806        C807   1.419       .  A
C806        C811   1.414       .  A
C806        F813   1.357       .  S
C807        C808   1.432       .  A
C808        C809   1.387       .  A
C808        F815   1.361       .  S
C809        C810   1.391       .  A
C809        F814   1.359       .  S
C810       C1887   1.500       .  S
C810        C811   1.410       .  A
C811        F812   1.357       .  S
C816        C817   1.404       .  A
C816        C821   1.398       .  A
C816        F823   1.354       .  S
C817        C818   1.407       .  A
C818        C819   1.398       .  A
C818        F825   1.346       .  S
C819        C820   1.410       .  A
C819        F824   1.356       .  S
C820        C821   1.424       .  A
C821        F822   1.352       .  S
C826        C827   1.400       .  A
C826        C831   1.389       .  A
C826        F833   1.355       .  S
C827        C828   1.408       .  A
C828        C829   1.414       .  A
C828        F835   1.354       .  S
C829        C830   1.428       .  A
C829        F834   1.352       .  S
C830        C831   1.424       .  A
C831        F832   1.356       .  S
C836        C837   1.398       .  A
C836        C841   1.392       .  A
C836        F843   1.353       .  S
C837        C964   1.495   1_554  S
C837        C838   1.406       .  A
C838        C839   1.408       .  A
C838        F845   1.357       .  S
C839        C840   1.422       .  A
C839        F844   1.355       .  S
C840        C841   1.426       .  A
C841        F842   1.358       .  S
C846        C847   1.399       .  A
C846        C851   1.400       .  A
C846        F853   1.357       .  S
C847        C848   1.398       .  A
C848        C849   1.388       .  A
C848        F855   1.355       .  S
C849        C850   1.419       .  A
C849        F854   1.358       .  S
C850        C851   1.424       .  A
C851        F852   1.356       .  S
C856        C857   1.421       .  A
C856        C861   1.400       .  A
C856        F863   1.358       .  S
C857        C858   1.420       .  A
C858        C859   1.401       .  A
C858        F865   1.357       .  S
C859        C860   1.403       .  A
C859        F864   1.356       .  S
C860        C861   1.402       .  A
C861        F862   1.356       .  S
C866        C867   1.420       .  A
C866        C871   1.403       .  A
C866        F873   1.359       .  S
C867        C868   1.428       .  A
C868        C869   1.408       .  A
C868        F875   1.356       .  S
C869        C870   1.401       .  A
C869        F874   1.358       .  S
C870       C1894   1.514       .  S
C870        C871   1.409       .  A
C871        F872   1.353       .  S
C876        C877   1.424       .  A
C876        C881   1.392       .  A
C876        F883   1.358       .  S
C877        C878   1.423       .  A
C878        C879   1.410       .  A
C878        F885   1.356       .  S
C879        C880   1.404       .  A
C879        F884   1.357       .  S
C880        C963   1.491   1_554  S
C880        C881   1.398       .  A
C881        F882   1.355       .  S
C886        C887   1.403       .  A
C886        C891   1.408       .  A
C886        F893   1.357       .  S
C887        C888   1.404       .  A
C888        C889   1.400       .  A
C888        F895   1.354       .  S
C889        C890   1.420       .  A
C889        F894   1.358       .  S
C890        C891   1.422       .  A
C891        F892   1.356       .  S
C896        C897   1.416       .  A
C896        C901   1.406       .  A
C896        F903   1.356       .  S
C897        C898   1.424       .  A
C898        C899   1.397       .  A
C898        F905   1.358       .  S
C899        C900   1.398       .  A
C899        F904   1.358       .  S
C900        C901   1.409       .  A
C901        F902   1.355       .  S
C906        C907   1.401       .  A
C906        C911   1.402       .  A
C906        F913   1.357       .  S
C907       C1888   1.497       .  S
C907        C908   1.402       .  A
C908        C909   1.400       .  A
C908        F915   1.356       .  S
C909        C910   1.425       .  A
C909        F914   1.359       .  S
C910        C911   1.423       .  A
C911        F912   1.356       .  S
N916        N917   1.319       .  A
N916        N922   1.314       .  A
N916       Mn945   2.169   1_455  S
N917        C924   1.352       .  A
N918        N920   1.314       .  A
N918        N919   1.308       .  A
N919        C925   1.353       .  A
N920        N921   1.325       .  A
N921        C925   1.354       .  A
N922        N923   1.310       .  A
N923        C924   1.353       .  A
C924        C977   1.510       .  S
C925        C974   1.522       .  S
N926        N932   1.312       .  A
N926        N927   1.319       .  A
N926      Mn2176   2.186       .  S
N927        C935   1.356       .  A
N928        N929   1.331       .  A
N928        N930   1.307       .  A
N928       Mn934   2.214   1_565  S
N929        C936   1.369       .  A
N930        N931   1.300       .  A
N930      Mn1871   2.162       .  S
N931        C936   1.336       .  A
N932        N933   1.320       .  A
N933        C935   1.357       .  A
C935        C971   1.559       .  S
C936        C978   1.566       .  S
N937        N938   1.310       .  A
N937        N943   1.312       .  A
N937      Mn1860   2.175       .  S
N938        C946   1.349       .  A
N939        N941   1.313       .  A
N939        N940   1.318       .  A
N940        C947   1.354       .  A
N941        N942   1.320       .  A
N941      Mn2165   2.206       .  S
N942        C947   1.359       .  A
N943        N944   1.327       .  A
N943       Mn957   2.226       .  S
N944        C946   1.364       .  A
Mn945      N1852   2.175       .  S
Mn945      N2161   2.206       .  S
Mn945      Cl958   2.532   1_655  S
C946        C965   1.550       .  S
C947        C968   1.562       .  S
N948        N949   1.324       .  A
N948        N954   1.313       .  A
N949        C959   1.357       .  A
N950        N951   1.320       .  A
N950        N952   1.314       .  A
N951        C960   1.360       .  A
N952        N953   1.314       .  A
N952       Mn956   2.162       .  S
N953        C960   1.350       .  A
N954        N955   1.315       .  A
N955        C959   1.355       .  A
Mn956      N2146   2.186       .  S
Mn956      N1845   2.162   1_556  S
Mn956     Cl1263   2.530   1_565  S
Mn957     Cl1873   2.548       .  S
Cl958     Mn1261   2.530       .  S
Cl958     Mn1872   2.548   1_455  S
C959        C962   1.554       .  S
C960        C961   1.545       .  S
C961       C1195   1.573       .  S
C961       C1202   1.559       .  S
C961       C1215   1.573       .  S
C962       C1162   1.559       .  S
C962       C1172   1.579       .  S
C962       C1182   1.577       .  S
C963        C964   1.363       .  D
C963       C1192   1.501       .  S
C964       C1152   1.480       .  S
C965       C1112   1.581       .  S
C965       C1125   1.586       .  S
C965       C1135   1.586       .  S
C966        C967   1.369       .  D
C966       C1132   1.508       .  S
C967       C1102   1.497       .  S
C968       C1082   1.570       .  S
C968       C1092   1.569       .  S
C968       C1105   1.560       .  S
C969        C970   1.368       .  D
C969       C1072   1.503       .  S
C970       C1122   1.504       .  S
C971       C1042   1.544       .  S
C971       C1052   1.564       .  S
C971       C1155   1.560       .  S
C972        C973   1.368       .  D
C972       C1035   1.538       .  S
C972       C2335   1.500   1_455  S
C973       C1055   1.474       .  S
C973       C2432   1.497   1_455  S
C974       C1022   1.558       .  S
C974       C1032   1.581       .  S
C974       C1075   1.579       .  S
C975        C976   1.352       .  D
C975       C1045   1.485       .  S
C976       C1002   1.492       .  S
C977        C995   1.574       .  S
C977       C1015   1.551       .  S
C977       C1062   1.568       .  S
C978        C985   1.594       .  S
C978       C1005   1.546       .  S
C978       C1145   1.565       .  S
C979        C980   1.371   1_455  D
C979        C982   1.483       .  S
C979       C2395   1.514   1_455  S
C980        C992   1.544   1_655  S
C980       C2305   1.507       .  S
C981        C982   1.392       .  A
C981        C986   1.372       .  A
C981        F988   1.354       .  S
C982        C983   1.412       .  A
C983        C984   1.423       .  A
C983        F990   1.356       .  S
C984        C985   1.435       .  A
C984        F989   1.356       .  S
C985        C986   1.419       .  A
C986        F987   1.361       .  S
C991        C992   1.411       .  A
C991        C996   1.385       .  A
C991        F998   1.350   1_455  S
C992        C993   1.432       .  A
C993        C994   1.410       .  A
C993       F1000   1.346       .  S
C994        C995   1.409       .  A
C994        F999   1.357       .  S
C995        C996   1.416       .  A
C996        F997   1.343       .  S
C1001      C1002   1.407       .  A
C1001      C1006   1.390       .  A
C1001      F1008   1.352       .  S
C1002      C1003   1.398       .  A
C1003      C1004   1.400       .  A
C1003      F1010   1.357       .  S
C1004      C1005   1.425       .  A
C1004      F1009   1.356       .  S
C1005      C1006   1.409       .  A
C1006      F1007   1.358       .  S
C1011      C1012   1.409       .  A
C1011      C1016   1.408       .  A
C1011      F1018   1.353       .  S
C1012      C1013   1.390       .  A
C1013      C1014   1.374       .  A
C1013      F1020   1.351       .  S
C1014      C1015   1.423       .  A
C1014      F1019   1.359       .  S
C1015      C1016   1.416       .  A
C1016      F1017   1.357       .  S
C1021      C1022   1.419       .  A
C1021      C1026   1.409       .  A
C1021      F1028   1.357       .  S
C1022      C1023   1.425       .  A
C1023      C1024   1.378       .  A
C1023      F1030   1.359       .  S
C1024      C1025   1.392       .  A
C1024      F1029   1.353       .  S
C1025      C1026   1.408       .  A
C1026      F1027   1.354       .  S
C1031      C1032   1.420       .  A
C1031      C1036   1.388       .  A
C1031      F1038   1.342       .  S
C1032      C1033   1.417       .  A
C1033      C1034   1.415       .  A
C1033      F1040   1.357       .  S
C1034      C1035   1.426       .  A
C1034      F1039   1.346       .  S
C1035      C1036   1.403       .  A
C1036      F1037   1.353   1_455  S
C1041      C1042   1.423       .  A
C1041      C1046   1.400       .  A
C1041      F1048   1.356       .  S
C1042      C1043   1.413       .  A
C1043      C1044   1.384       .  A
C1043      F1050   1.359       .  S
C1044      C1045   1.403       .  A
C1044      F1049   1.351       .  S
C1045      C1046   1.398       .  A
C1046      F1047   1.357       .  S
C1051      C1052   1.418       .  A
C1051      C1056   1.393       .  A
C1051      F1058   1.360       .  S
C1052      C1053   1.424       .  A
C1053      C1054   1.400       .  A
C1053      F1060   1.357       .  S
C1054      C1055   1.398       .  A
C1054      F1059   1.357       .  S
C1055      C1056   1.403       .  A
C1056      F1057   1.356       .  S
C1061      C1062   1.433       .  A
C1061      C1066   1.407       .  A
C1061      F1068   1.357       .  S
C1062      C1063   1.420       .  A
C1063      C1064   1.387       .  A
C1063      F1070   1.356       .  S
C1064      C1065   1.397       .  A
C1064      F1069   1.350       .  S
C1065      C1066   1.403       .  A
C1066      F1067   1.355       .  S
C1071      C1072   1.400       .  A
C1071      C1076   1.398       .  A
C1071      F1078   1.353       .  S
C1072      C1073   1.402       .  A
C1073      C1074   1.403       .  A
C1073      F1080   1.359       .  S
C1074      C1075   1.433       .  A
C1074      F1079   1.358       .  S
C1075      C1076   1.423       .  A
C1076      F1077   1.355       .  S
C1081      C1082   1.420       .  A
C1081      C1086   1.410       .  A
C1081      F1088   1.356       .  S
C1082      C1083   1.419       .  A
C1083      C1084   1.399       .  A
C1083      F1090   1.359       .  S
C1084      C1085   1.402       .  A
C1084      F1089   1.357       .  S
C1085      C2200   1.507       .  S
C1085      C1086   1.407       .  A
C1086      F1087   1.357       .  S
C1091      C1092   1.421       .  A
C1091      C1096   1.397       .  A
C1091      F1098   1.358       .  S
C1092      C1093   1.423       .  A
C1093      C1094   1.405       .  A
C1093      F1100   1.356       .  S
C1094      C1095   1.404       .  A
C1094      F1099   1.357       .  S
C1095      C1096   1.399       .  A
C1096      F1097   1.358       .  S
C1101      C1102   1.404       .  A
C1101      C1106   1.397       .  A
C1101      F1108   1.356       .  S
C1102      C1103   1.405       .  A
C1103      C1104   1.409       .  A
C1103      F1110   1.357       .  S
C1104      C1105   1.421       .  A
C1104      F1109   1.356       .  S
C1105      C1106   1.417       .  A
C1106      F1107   1.356       .  S
C1111      C1112   1.419       .  A
C1111      C1116   1.414       .  A
C1111      F1118   1.357       .  S
C1112      C1113   1.432       .  A
C1113      C1114   1.387       .  A
C1113      F1120   1.361       .  S
C1114      C1115   1.391       .  A
C1114      F1119   1.359       .  S
C1115      C2192   1.500       .  S
C1115      C1116   1.410       .  A
C1116      F1117   1.357       .  S
C1121      C1122   1.404       .  A
C1121      C1126   1.398       .  A
C1121      F1128   1.354       .  S
C1122      C1123   1.407       .  A
C1123      C1124   1.398       .  A
C1123      F1130   1.346       .  S
C1124      C1125   1.410       .  A
C1124      F1129   1.356       .  S
C1125      C1126   1.424       .  A
C1126      F1127   1.352       .  S
C1131      C1132   1.400       .  A
C1131      C1136   1.389       .  A
C1131      F1138   1.355       .  S
C1132      C1133   1.408       .  A
C1133      C1134   1.414       .  A
C1133      F1140   1.354       .  S
C1134      C1135   1.428       .  A
C1134      F1139   1.352       .  S
C1135      C1136   1.424       .  A
C1136      F1137   1.356       .  S
C1141      C1142   1.398       .  A
C1141      C1146   1.392       .  A
C1141      F1148   1.353       .  S
C1142      C1143   1.406       .  A
C1143      C1144   1.408       .  A
C1143      F1150   1.357       .  S
C1144      C1145   1.422       .  A
C1144      F1149   1.355       .  S
C1145      C1146   1.426       .  A
C1146      F1147   1.358       .  S
C1151      C1152   1.399       .  A
C1151      C1156   1.400       .  A
C1151      F1158   1.357       .  S
C1152      C1153   1.398       .  A
C1153      C1154   1.388       .  A
C1153      F1160   1.355       .  S
C1154      C1155   1.419       .  A
C1154      F1159   1.358       .  S
C1155      C1156   1.424       .  A
C1156      F1157   1.356       .  S
C1161      C1162   1.421       .  A
C1161      C1166   1.400       .  A
C1161      F1168   1.358       .  S
C1162      C1163   1.420       .  A
C1163      C1164   1.401       .  A
C1163      F1170   1.357       .  S
C1164      C1165   1.403       .  A
C1164      F1169   1.356       .  S
C1165      C1166   1.402       .  A
C1166      F1167   1.356       .  S
C1171      C1172   1.420       .  A
C1171      C1176   1.403       .  A
C1171      F1178   1.359       .  S
C1172      C1173   1.428       .  A
C1173      C1174   1.408       .  A
C1173      F1180   1.356       .  S
C1174      C1175   1.401       .  A
C1174      F1179   1.358       .  S
C1175      C2199   1.514       .  S
C1175      C1176   1.409       .  A
C1176      F1177   1.353       .  S
C1181      C1182   1.424       .  A
C1181      C1186   1.392       .  A
C1181      F1188   1.358       .  S
C1182      C1183   1.423       .  A
C1183      C1184   1.410       .  A
C1183      F1190   1.356       .  S
C1184      C1185   1.404       .  A
C1184      F1189   1.357       .  S
C1185      C1186   1.398       .  A
C1186      F1187   1.355       .  S
C1191      C1192   1.403       .  A
C1191      C1196   1.408       .  A
C1191      F1198   1.357       .  S
C1192      C1193   1.404       .  A
C1193      C1194   1.400       .  A
C1193      F1200   1.354       .  S
C1194      C1195   1.420       .  A
C1194      F1199   1.358       .  S
C1195      C1196   1.422       .  A
C1196      F1197   1.356       .  S
C1201      C1202   1.416       .  A
C1201      C1206   1.406       .  A
C1201      F1208   1.356       .  S
C1202      C1203   1.424       .  A
C1203      C1204   1.397       .  A
C1203      F1210   1.358       .  S
C1204      C1205   1.398       .  A
C1204      F1209   1.358       .  S
C1205      C1206   1.409       .  A
C1206      F1207   1.355       .  S
C1211      C1212   1.401       .  A
C1211      C1216   1.402       .  A
C1211      F1218   1.357       .  S
C1212      C2193   1.497       .  S
C1212      C1213   1.402       .  A
C1213      C1214   1.400       .  A
C1213      F1220   1.356       .  S
C1214      C1215   1.425       .  A
C1214      F1219   1.359       .  S
C1215      C1216   1.423       .  A
C1216      F1217   1.356       .  S
N1221      N1222   1.319       .  A
N1221      N1227   1.314       .  A
N1221     Mn1250   2.169   1_554  S
N1222      C1229   1.352       .  A
N1223      N1225   1.314       .  A
N1223      N1224   1.308       .  A
N1223     Mn2154   2.190       .  S
N1224      C1230   1.353       .  A
N1225      N1226   1.325       .  A
N1225     Mn1555   2.183       .  S
N1226      C1230   1.354       .  A
N1227      N1228   1.310       .  A
N1227     Mn1849   2.180   1_554  S
N1228      C1229   1.353       .  A
C1229      C1282   1.510       .  S
C1230      C1279   1.522       .  S
N1231      N1237   1.312       .  A
N1231      N1232   1.319       .  A
N1232      C1240   1.356       .  A
N1233      N1234   1.331       .  A
N1233      N1235   1.307       .  A
N1233     Mn1239   2.214   1_554  S
N1234      C1241   1.369       .  A
N1235      N1236   1.300       .  A
N1236      C1241   1.336       .  A
N1237      N1238   1.320       .  A
N1237     Mn1544   2.214       .  S
N1238      C1240   1.357       .  A
Mn1239     N2138   2.190       .  S
Mn1239     N1837   2.180   1_556  S
Mn1239     N1542   2.214       .  S
Mn1239    Cl1873   2.539       .  S
C1240      C1276   1.559       .  S
C1241      C1283   1.566       .  S
N1242      N1243   1.310       .  A
N1242      N1248   1.312       .  A
N1243      C1251   1.349       .  A
N1244      N1246   1.313       .  A
N1244      N1245   1.318       .  A
N1244     Mn1567   2.195   1_554  S
N1245      C1252   1.354       .  A
N1246      N1247   1.320       .  A
N1247      C1252   1.359       .  A
N1248      N1249   1.327       .  A
N1248     Mn1262   2.226       .  S
N1249      C1251   1.364       .  A
Mn1250     N1530   2.183       .  S
Mn1250    Cl1263   2.532       .  S
C1251      C1270   1.550       .  S
C1252      C1273   1.562       .  S
N1253      N1254   1.324       .  A
N1253      N1259   1.313       .  A
N1253     Mn1566   2.197   1_654  S
N1254      C1264   1.357       .  A
N1255      N1256   1.320       .  A
N1255      N1257   1.314       .  A
N1255     Mn1872   2.223       .  S
N1256      C1265   1.360       .  A
N1257      N1258   1.314       .  A
N1257     Mn1261   2.162   1_655  S
N1258      C1265   1.350       .  A
N1259      N1260   1.315       .  A
N1259     Mn2177   2.213   1_554  S
N1260      C1264   1.355       .  A
Mn1261     N1558   2.197   1_455  S
Mn1262     N1549   2.195       .  S
Mn1262     N1865   2.223   1_545  S
Mn1262     N2174   2.213   1_545  S
Cl1263    Mn1849   2.539       .  S
C1264      C1267   1.554       .  S
C1265      C1266   1.545       .  S
C1266      C1500   1.573       .  S
C1266      C1507   1.559       .  S
C1266      C1520   1.573       .  S
C1267      C1467   1.559       .  S
C1267      C1477   1.579       .  S
C1267      C1487   1.577       .  S
C1268      C1269   1.363       .  D
C1268      C1795   1.491       .  S
C1268      C1497   1.501       .  S
C1269      C1752   1.495       .  S
C1269      C1457   1.480       .  S
C1270      C1417   1.581       .  S
C1270      C1430   1.586       .  S
C1270      C1440   1.586       .  S
C1271      C1272   1.369       .  D
C1271      C1437   1.508       .  S
C1271      C2120   1.501   1_545  S
C1272      C1407   1.497       .  S
C1272      C2080   1.494   1_545  S
C1273      C1387   1.570       .  S
C1273      C1397   1.569       .  S
C1273      C1410   1.560       .  S
C1274      C1275   1.368       .  D
C1274      C1675   1.501       .  S
C1274      C1377   1.503       .  S
C1275      C1705   1.495       .  S
C1275      C1427   1.504       .  S
C1276      C1347   1.544       .  S
C1276      C1357   1.564       .  S
C1276      C1460   1.560       .  S
C1277      C1278   1.368       .  D
C1277      C1340   1.538       .  S
C1278      C1360   1.474       .  S
C1279      C1327   1.558       .  S
C1279      C1337   1.581       .  S
C1279      C1380   1.579       .  S
C1280      C1281   1.352       .  D
C1280      C1940   1.489       .  S
C1280      C1350   1.485       .  S
C1281      C1307   1.492       .  S
C1281      C1927   1.488       .  S
C1282      C1300   1.574       .  S
C1282      C1320   1.551       .  S
C1282      C1367   1.568       .  S
C1283      C1290   1.594       .  S
C1283      C1310   1.546       .  S
C1283      C1450   1.565       .  S
C1284      C1285   1.371       .  D
C1284      C1287   1.483       .  S
C1285      C1297   1.544       .  S
C1286      C1287   1.392       .  A
C1286      C1291   1.372       .  A
C1286      F1293   1.354       .  S
C1287      C1288   1.412       .  A
C1288      C1289   1.423       .  A
C1288      F1295   1.356       .  S
C1289      C1290   1.435       .  A
C1289      F1294   1.356       .  S
C1290      C1291   1.419       .  A
C1291      F1292   1.361       .  S
C1296      C1297   1.411       .  A
C1296      C1301   1.385       .  A
C1296      F1303   1.350       .  S
C1297      C1298   1.432       .  A
C1298      C1299   1.410       .  A
C1298      F1305   1.346       .  S
C1299      C1300   1.409       .  A
C1299      F1304   1.357       .  S
C1300      C1301   1.416       .  A
C1301      F1302   1.343       .  S
C1306      C1307   1.407       .  A
C1306      C1311   1.390       .  A
C1306      F1313   1.352       .  S
C1307      C1308   1.398       .  A
C1308      C1309   1.400       .  A
C1308      F1315   1.357       .  S
C1309      C1310   1.425       .  A
C1309      F1314   1.356       .  S
C1310      C1311   1.409       .  A
C1311      F1312   1.358       .  S
C1316      C1317   1.409       .  A
C1316      C1321   1.408       .  A
C1316      F1323   1.353       .  S
C1317      C1891   1.488   1_545  S
C1317      C1318   1.390       .  A
C1318      C1319   1.374       .  A
C1318      F1325   1.351       .  S
C1319      C1320   1.423       .  A
C1319      F1324   1.359       .  S
C1320      C1321   1.416       .  A
C1321      F1322   1.357       .  S
C1326      C1327   1.419       .  A
C1326      C1331   1.409       .  A
C1326      F1333   1.357       .  S
C1327      C1328   1.425       .  A
C1328      C1329   1.378       .  A
C1328      F1335   1.359       .  S
C1329      C1330   1.392       .  A
C1329      F1334   1.353       .  S
C1330      C1890   1.489   1_545  S
C1330      C1331   1.408       .  A
C1331      F1332   1.354       .  S
C1336      C1337   1.420       .  A
C1336      C1341   1.388       .  A
C1336      F1343   1.342       .  S
C1337      C1338   1.417       .  A
C1338      C1339   1.415       .  A
C1338      F1345   1.357       .  S
C1339      C1340   1.426       .  A
C1339      F1344   1.346       .  S
C1340      C1341   1.403       .  A
C1341      F1342   1.353       .  S
C1346      C1347   1.423       .  A
C1346      C1351   1.400       .  A
C1346      F1353   1.356       .  S
C1347      C1348   1.413       .  A
C1348      C1349   1.384       .  A
C1348      F1355   1.359       .  S
C1349      C1350   1.403       .  A
C1349      F1354   1.351       .  S
C1350      C1351   1.398       .  A
C1351      F1352   1.357       .  S
C1356      C1357   1.418       .  A
C1356      C1361   1.393       .  A
C1356      F1363   1.360       .  S
C1357      C1358   1.424       .  A
C1358      C1359   1.400       .  A
C1358      F1365   1.357       .  S
C1359      C1360   1.398       .  A
C1359      F1364   1.357       .  S
C1360      C1361   1.403       .  A
C1361      F1362   1.356       .  S
C1366      C1367   1.433       .  A
C1366      C1371   1.407       .  A
C1366      F1373   1.357       .  S
C1367      C1368   1.420       .  A
C1368      C1369   1.387       .  A
C1368      F1375   1.356       .  S
C1369      C1370   1.397       .  A
C1369      F1374   1.350       .  S
C1370      C1579   1.501   1_554  S
C1370      C1371   1.403       .  A
C1371      F1372   1.355       .  S
C1376      C1377   1.400       .  A
C1376      C1381   1.398       .  A
C1376      F1383   1.353       .  S
C1377      C1378   1.402       .  A
C1378      C1379   1.403       .  A
C1378      F1385   1.359       .  S
C1379      C1380   1.433       .  A
C1379      F1384   1.358       .  S
C1380      C1381   1.423       .  A
C1381      F1382   1.355       .  S
C1386      C1387   1.420       .  A
C1386      C1391   1.410       .  A
C1386      F1393   1.356       .  S
C1387      C1388   1.419       .  A
C1388      C1389   1.399       .  A
C1388      F1395   1.359       .  S
C1389      C1390   1.402       .  A
C1389      F1394   1.357       .  S
C1390      C1391   1.407       .  A
C1391      F1392   1.357       .  S
C1396      C1397   1.421       .  A
C1396      C1401   1.397       .  A
C1396      F1403   1.358       .  S
C1397      C1398   1.423       .  A
C1398      C1399   1.405       .  A
C1398      F1405   1.356       .  S
C1399      C1400   1.404       .  A
C1399      F1404   1.357       .  S
C1400      C1580   1.495   1_554  S
C1400      C1401   1.399       .  A
C1401      F1402   1.358       .  S
C1406      C1407   1.404       .  A
C1406      C1411   1.397       .  A
C1406      F1413   1.356       .  S
C1407      C1408   1.405       .  A
C1408      C1409   1.409       .  A
C1408      F1415   1.357       .  S
C1409      C1410   1.421       .  A
C1409      F1414   1.356       .  S
C1410      C1411   1.417       .  A
C1411      F1412   1.356       .  S
C1416      C1417   1.419       .  A
C1416      C1421   1.414       .  A
C1416      F1423   1.357       .  S
C1417      C1418   1.432       .  A
C1418      C1419   1.387       .  A
C1418      F1425   1.361       .  S
C1419      C1420   1.391       .  A
C1419      F1424   1.359       .  S
C1420      C1421   1.410       .  A
C1421      F1422   1.357       .  S
C1426      C1427   1.404       .  A
C1426      C1431   1.398       .  A
C1426      F1433   1.354       .  S
C1427      C1428   1.407       .  A
C1428      C1429   1.398       .  A
C1428      F1435   1.346       .  S
C1429      C1430   1.410       .  A
C1429      F1434   1.356       .  S
C1430      C1431   1.424       .  A
C1431      F1432   1.352       .  S
C1436      C1437   1.400       .  A
C1436      C1441   1.388       .  A
C1436      F1443   1.355       .  S
C1437      C1438   1.408       .  A
C1438      C1439   1.414       .  A
C1438      F1445   1.354       .  S
C1439      C1440   1.428       .  A
C1439      F1444   1.352       .  S
C1440      C1441   1.424       .  A
C1441      F1442   1.356       .  S
C1446      C1447   1.398       .  A
C1446      C1451   1.392       .  A
C1446      F1453   1.353       .  S
C1447      C1574   1.495   1_554  S
C1447      C1448   1.406       .  A
C1448      C1449   1.408       .  A
C1448      F1455   1.357       .  S
C1449      C1450   1.422       .  A
C1449      F1454   1.355       .  S
C1450      C1451   1.426       .  A
C1451      F1452   1.358       .  S
C1456      C1457   1.399       .  A
C1456      C1461   1.400       .  A
C1456      F1463   1.357       .  S
C1457      C1458   1.398       .  A
C1458      C1459   1.388       .  A
C1458      F1465   1.355       .  S
C1459      C1460   1.419       .  A
C1459      F1464   1.358       .  S
C1460      C1461   1.424       .  A
C1461      F1462   1.356       .  S
C1466      C1467   1.421       .  A
C1466      C1471   1.400       .  A
C1466      F1473   1.358       .  S
C1467      C1468   1.420       .  A
C1468      C1469   1.401       .  A
C1468      F1475   1.357       .  S
C1469      C1470   1.403       .  A
C1469      F1474   1.356       .  S
C1470      C1882   1.494       .  S
C1470      C1471   1.402       .  A
C1471      F1472   1.356       .  S
C1476      C1477   1.420       .  A
C1476      C1481   1.403       .  A
C1476      F1483   1.359       .  S
C1477      C1478   1.428       .  A
C1478      C1479   1.408       .  A
C1478      F1485   1.356       .  S
C1479      C1480   1.401       .  A
C1479      F1484   1.358       .  S
C1480      C1481   1.409       .  A
C1481      F1482   1.353       .  S
C1486      C1487   1.424       .  A
C1486      C1491   1.392       .  A
C1486      F1493   1.358       .  S
C1487      C1488   1.423       .  A
C1488      C1489   1.410       .  A
C1488      F1495   1.356       .  S
C1489      C1490   1.404       .  A
C1489      F1494   1.357       .  S
C1490      C1573   1.491   1_554  S
C1490      C1491   1.398       .  A
C1491      F1492   1.355       .  S
C1496      C1497   1.403       .  A
C1496      C1501   1.408       .  A
C1496      F1503   1.357       .  S
C1497      C1498   1.404       .  A
C1498      C1499   1.400       .  A
C1498      F1505   1.354       .  S
C1499      C1500   1.420       .  A
C1499      F1504   1.358       .  S
C1500      C1501   1.422       .  A
C1501      F1502   1.356       .  S
C1506      C1507   1.416       .  A
C1506      C1511   1.406       .  A
C1506      F1513   1.356       .  S
C1507      C1508   1.424       .  A
C1508      C1509   1.397       .  A
C1508      F1515   1.358       .  S
C1509      C1510   1.398       .  A
C1509      F1514   1.358       .  S
C1510      C1881   1.501       .  S
C1510      C1511   1.409       .  A
C1511      F1512   1.355       .  S
C1516      C1517   1.401       .  A
C1516      C1521   1.402       .  A
C1516      F1523   1.357       .  S
C1517      C1518   1.402       .  A
C1518      C1519   1.400       .  A
C1518      F1525   1.356       .  S
C1519      C1520   1.425       .  A
C1519      F1524   1.359       .  S
C1520      C1521   1.423       .  A
C1521      F1522   1.356       .  S
N1526      N1527   1.319       .  A
N1526      N1532   1.314       .  A
N1526     Mn1555   2.169       .  S
N1527      C1534   1.352       .  A
N1528      N1530   1.314       .  A
N1528      N1529   1.308       .  A
N1528     Mn1849   2.190       .  S
N1529      C1535   1.353       .  A
N1530      N1531   1.325       .  A
N1531      C1535   1.354       .  A
N1532      N1533   1.310       .  A
N1532     Mn2154   2.180       .  S
N1533      C1534   1.353       .  A
C1534      C1587   1.510       .  S
C1535      C1584   1.522       .  S
N1536      N1542   1.312       .  A
N1536      N1537   1.319       .  A
N1537      C1545   1.356       .  A
N1538      N1539   1.331       .  A
N1538      N1540   1.307       .  A
N1538     Mn1544   2.214       .  S
N1539      C1546   1.369       .  A
N1540      N1541   1.300       .  A
N1541      C1546   1.336       .  A
N1542      N1543   1.320       .  A
N1543      C1545   1.357       .  A
Mn1544     N1833   2.190       .  S
Mn1544     N2142   2.180       .  S
Mn1544    Cl2178   2.539       .  S
C1545      C1581   1.559       .  S
C1546      C1588   1.566       .  S
N1547      N1548   1.310       .  A
N1547      N1553   1.312       .  A
N1548      C1556   1.349       .  A
N1549      N1551   1.313       .  A
N1549      N1550   1.318       .  A
N1550      C1557   1.354       .  A
N1551      N1552   1.320       .  A
N1552      C1557   1.359       .  A
N1553      N1554   1.327       .  A
N1553     Mn1567   2.226       .  S
N1554      C1556   1.364       .  A
Mn1555    Cl1568   2.532       .  S
C1556      C1575   1.550       .  S
C1557      C1578   1.562       .  S
N1558      N1559   1.324       .  A
N1558      N1564   1.313       .  A
N1559      C1569   1.357       .  A
N1560      N1561   1.320       .  A
N1560      N1562   1.314       .  A
N1560     Mn2177   2.223       .  S
N1561      C1570   1.360       .  A
N1562      N1563   1.314       .  A
N1562     Mn1566   2.162   1_655  S
N1563      C1570   1.350       .  A
N1564      N1565   1.315       .  A
N1564     Mn1872   2.213       .  S
N1565      C1569   1.355       .  A
Mn1567     N2170   2.223   1_545  S
Mn1567     N1869   2.213   1_546  S
Cl1568    Mn2154   2.539       .  S
C1569      C1572   1.554       .  S
C1570      C1571   1.545       .  S
C1571      C1805   1.573       .  S
C1571      C1812   1.559       .  S
C1571      C1825   1.573       .  S
C1572      C1772   1.559       .  S
C1572      C1782   1.579       .  S
C1572      C1792   1.577       .  S
C1573      C1574   1.363       .  D
C1573      C1802   1.501       .  S
C1574      C1762   1.480       .  S
C1575      C1722   1.581       .  S
C1575      C1735   1.586       .  S
C1575      C1745   1.586       .  S
C1576      C1577   1.369       .  D
C1576      C1742   1.508       .  S
C1576      C2425   1.501   1_545  S
C1577      C1712   1.497       .  S
C1577      C2385   1.494   1_545  S
C1578      C1692   1.570       .  S
C1578      C1702   1.569       .  S
C1578      C1715   1.560       .  S
C1579      C1580   1.368       .  D
C1579      C1682   1.503       .  S
C1580      C1732   1.504       .  S
C1581      C1652   1.544       .  S
C1581      C1662   1.564       .  S
C1581      C1765   1.560       .  S
C1582      C1583   1.368       .  D
C1582      C1645   1.538       .  S
C1583      C1665   1.474       .  S
C1584      C1632   1.558       .  S
C1584      C1642   1.581       .  S
C1584      C1685   1.579       .  S
C1585      C1586   1.352       .  D
C1585      C2245   1.489       .  S
C1585      C1655   1.485       .  S
C1586      C1612   1.492       .  S
C1586      C2232   1.488       .  S
C1587      C1605   1.574       .  S
C1587      C1625   1.551       .  S
C1587      C1672   1.568       .  S
C1588      C1595   1.594       .  S
C1588      C1615   1.546       .  S
C1588      C1755   1.565       .  S
C1589      C1590   1.371       .  D
C1589      C1592   1.483       .  S
C1590      C1602   1.544       .  S
C1591      C1592   1.392       .  A
C1591      C1596   1.372       .  A
C1591      F1598   1.354       .  S
C1592      C1593   1.412       .  A
C1593      C1594   1.423       .  A
C1593      F1600   1.356       .  S
C1594      C1595   1.435       .  A
C1594      F1599   1.356       .  S
C1595      C1596   1.419       .  A
C1596      F1597   1.361       .  S
C1601      C1602   1.411       .  A
C1601      C1606   1.385       .  A
C1601      F1608   1.350       .  S
C1602      C1603   1.432       .  A
C1603      C1604   1.410       .  A
C1603      F1610   1.346       .  S
C1604      C1605   1.409       .  A
C1604      F1609   1.357       .  S
C1605      C1606   1.416       .  A
C1606      F1607   1.343       .  S
C1611      C1612   1.407       .  A
C1611      C1616   1.390       .  A
C1611      F1618   1.352       .  S
C1612      C1613   1.398       .  A
C1613      C1614   1.400       .  A
C1613      F1620   1.357       .  S
C1614      C1615   1.425       .  A
C1614      F1619   1.356       .  S
C1615      C1616   1.409       .  A
C1616      F1617   1.358       .  S
C1621      C1622   1.409       .  A
C1621      C1626   1.408       .  A
C1621      F1628   1.353       .  S
C1622      C2196   1.488   1_545  S
C1622      C1623   1.390       .  A
C1623      C1624   1.374       .  A
C1623      F1630   1.351       .  S
C1624      C1625   1.423       .  A
C1624      F1629   1.359       .  S
C1625      C1626   1.416       .  A
C1626      F1627   1.357       .  S
C1631      C1632   1.419       .  A
C1631      C1636   1.409       .  A
C1631      F1638   1.357       .  S
C1632      C1633   1.425       .  A
C1633      C1634   1.378       .  A
C1633      F1640   1.359       .  S
C1634      C1635   1.392       .  A
C1634      F1639   1.353       .  S
C1635      C2195   1.489   1_545  S
C1635      C1636   1.408       .  A
C1636      F1637   1.354       .  S
C1641      C1642   1.420       .  A
C1641      C1646   1.388       .  A
C1641      F1648   1.342       .  S
C1642      C1643   1.417       .  A
C1643      C1644   1.415       .  A
C1643      F1650   1.357       .  S
C1644      C1645   1.426       .  A
C1644      F1649   1.346       .  S
C1645      C1646   1.403       .  A
C1646      F1647   1.353       .  S
C1651      C1652   1.423       .  A
C1651      C1656   1.400       .  A
C1651      F1658   1.356       .  S
C1652      C1653   1.413       .  A
C1653      C1654   1.384       .  A
C1653      F1660   1.359       .  S
C1654      C1655   1.403       .  A
C1654      F1659   1.351       .  S
C1655      C1656   1.398       .  A
C1656      F1657   1.357       .  S
C1661      C1662   1.418       .  A
C1661      C1666   1.393       .  A
C1661      F1668   1.360       .  S
C1662      C1663   1.424       .  A
C1663      C1664   1.400       .  A
C1663      F1670   1.357       .  S
C1664      C1665   1.398       .  A
C1664      F1669   1.357       .  S
C1665      C1666   1.403       .  A
C1666      F1667   1.356       .  S
C1671      C1672   1.433       .  A
C1671      C1676   1.407       .  A
C1671      F1678   1.357       .  S
C1672      C1673   1.420       .  A
C1673      C1674   1.387       .  A
C1673      F1680   1.356       .  S
C1674      C1675   1.397       .  A
C1674      F1679   1.350       .  S
C1675      C1676   1.403       .  A
C1676      F1677   1.355       .  S
C1681      C1682   1.400       .  A
C1681      C1686   1.398       .  A
C1681      F1688   1.353       .  S
C1682      C1683   1.402       .  A
C1683      C1684   1.403       .  A
C1683      F1690   1.359       .  S
C1684      C1685   1.433       .  A
C1684      F1689   1.358       .  S
C1685      C1686   1.423       .  A
C1686      F1687   1.355       .  S
C1691      C1692   1.420       .  A
C1691      C1696   1.410       .  A
C1691      F1698   1.356       .  S
C1692      C1693   1.419       .  A
C1693      C1694   1.399       .  A
C1693      F1700   1.359       .  S
C1694      C1695   1.402       .  A
C1694      F1699   1.357       .  S
C1695      C1696   1.407       .  A
C1696      F1697   1.357       .  S
C1701      C1702   1.421       .  A
C1701      C1706   1.397       .  A
C1701      F1708   1.358       .  S
C1702      C1703   1.423       .  A
C1703      C1704   1.405       .  A
C1703      F1710   1.356       .  S
C1704      C1705   1.404       .  A
C1704      F1709   1.357       .  S
C1705      C1706   1.399       .  A
C1706      F1707   1.358       .  S
C1711      C1712   1.404       .  A
C1711      C1716   1.397       .  A
C1711      F1718   1.356       .  S
C1712      C1713   1.405       .  A
C1713      C1714   1.409       .  A
C1713      F1720   1.357       .  S
C1714      C1715   1.421       .  A
C1714      F1719   1.356       .  S
C1715      C1716   1.417       .  A
C1716      F1717   1.356       .  S
C1721      C1722   1.419       .  A
C1721      C1726   1.414       .  A
C1721      F1728   1.357       .  S
C1722      C1723   1.432       .  A
C1723      C1724   1.387       .  A
C1723      F1730   1.361       .  S
C1724      C1725   1.391       .  A
C1724      F1729   1.359       .  S
C1725      C1726   1.410       .  A
C1726      F1727   1.357       .  S
C1731      C1732   1.404       .  A
C1731      C1736   1.398       .  A
C1731      F1738   1.354       .  S
C1732      C1733   1.407       .  A
C1733      C1734   1.398       .  A
C1733      F1740   1.346       .  S
C1734      C1735   1.410       .  A
C1734      F1739   1.356       .  S
C1735      C1736   1.424       .  A
C1736      F1737   1.352       .  S
C1741      C1742   1.400       .  A
C1741      C1746   1.389       .  A
C1741      F1748   1.355       .  S
C1742      C1743   1.408       .  A
C1743      C1744   1.414       .  A
C1743      F1750   1.354       .  S
C1744      C1745   1.428       .  A
C1744      F1749   1.352       .  S
C1745      C1746   1.424       .  A
C1746      F1747   1.356       .  S
C1751      C1752   1.398       .  A
C1751      C1756   1.392       .  A
C1751      F1758   1.353       .  S
C1752      C1753   1.406       .  A
C1753      C1754   1.408       .  A
C1753      F1760   1.357       .  S
C1754      C1755   1.422       .  A
C1754      F1759   1.355       .  S
C1755      C1756   1.426       .  A
C1756      F1757   1.358       .  S
C1761      C1762   1.399       .  A
C1761      C1766   1.400       .  A
C1761      F1768   1.357       .  S
C1762      C1763   1.398       .  A
C1763      C1764   1.388       .  A
C1763      F1770   1.355       .  S
C1764      C1765   1.419       .  A
C1764      F1769   1.358       .  S
C1765      C1766   1.424       .  A
C1766      F1767   1.356       .  S
C1771      C1772   1.421       .  A
C1771      C1776   1.400       .  A
C1771      F1778   1.358       .  S
C1772      C1773   1.420       .  A
C1773      C1774   1.401       .  A
C1773      F1780   1.357       .  S
C1774      C1775   1.403       .  A
C1774      F1779   1.356       .  S
C1775      C2187   1.494       .  S
C1775      C1776   1.402       .  A
C1776      F1777   1.356       .  S
C1781      C1782   1.420       .  A
C1781      C1786   1.403       .  A
C1781      F1788   1.359       .  S
C1782      C1783   1.428       .  A
C1783      C1784   1.408       .  A
C1783      F1790   1.356       .  S
C1784      C1785   1.401       .  A
C1784      F1789   1.358       .  S
C1785      C1786   1.409       .  A
C1786      F1787   1.353       .  S
C1791      C1792   1.424       .  A
C1791      C1796   1.392       .  A
C1791      F1798   1.358       .  S
C1792      C1793   1.423       .  A
C1793      C1794   1.410       .  A
C1793      F1800   1.356       .  S
C1794      C1795   1.404       .  A
C1794      F1799   1.357       .  S
C1795      C1796   1.398       .  A
C1796      F1797   1.355       .  S
C1801      C1802   1.403       .  A
C1801      C1806   1.408       .  A
C1801      F1808   1.357       .  S
C1802      C1803   1.404       .  A
C1803      C1804   1.400       .  A
C1803      F1810   1.354       .  S
C1804      C1805   1.420       .  A
C1804      F1809   1.358       .  S
C1805      C1806   1.422       .  A
C1806      F1807   1.356       .  S
C1811      C1812   1.416       .  A
C1811      C1816   1.406       .  A
C1811      F1818   1.356       .  S
C1812      C1813   1.424       .  A
C1813      C1814   1.397       .  A
C1813      F1820   1.358       .  S
C1814      C1815   1.398       .  A
C1814      F1819   1.358       .  S
C1815      C2186   1.501       .  S
C1815      C1816   1.409       .  A
C1816      F1817   1.355       .  S
C1821      C1822   1.401       .  A
C1821      C1826   1.402       .  A
C1821      F1828   1.357       .  S
C1822      C1823   1.402       .  A
C1823      C1824   1.400       .  A
C1823      F1830   1.356       .  S
C1824      C1825   1.425       .  A
C1824      F1829   1.359       .  S
C1825      C1826   1.423       .  A
C1826      F1827   1.356       .  S
N1831      N1832   1.319       .  A
N1831      N1837   1.314       .  A
N1831     Mn1860   2.169   1_554  S
N1832      C1839   1.352       .  A
N1833      N1835   1.314       .  A
N1833      N1834   1.308       .  A
N1834      C1840   1.353       .  A
N1835      N1836   1.325       .  A
N1835     Mn2165   2.183       .  S
N1836      C1840   1.354       .  A
N1837      N1838   1.310       .  A
N1838      C1839   1.353       .  A
C1839      C1892   1.510       .  S
C1840      C1889   1.522       .  S
N1841      N1847   1.312       .  A
N1841      N1842   1.319       .  A
N1842      C1850   1.356       .  A
N1843      N1844   1.331       .  A
N1843      N1845   1.307       .  A
N1843     Mn1849   2.214   1_564  S
N1844      C1851   1.369       .  A
N1845      N1846   1.300       .  A
N1846      C1851   1.336       .  A
N1847      N1848   1.320       .  A
N1847     Mn2154   2.214   1_565  S
N1848      C1850   1.357       .  A
Mn1849     N2152   2.214   1_545  S
C1850      C1886   1.559       .  S
C1851      C1893   1.566       .  S
N1852      N1853   1.310       .  A
N1852      N1858   1.312       .  A
N1853      C1861   1.349       .  A
N1854      N1856   1.313       .  A
N1854      N1855   1.318       .  A
N1854     Mn2177   2.195   1_554  S
N1855      C1862   1.354       .  A
N1856      N1857   1.320       .  A
N1857      C1862   1.359       .  A
N1858      N1859   1.327       .  A
N1858     Mn1872   2.226       .  S
N1859      C1861   1.364       .  A
Mn1860     N2140   2.183       .  S
Mn1860    Cl1873   2.532       .  S
C1861      C1880   1.550       .  S
C1862      C1883   1.562       .  S
N1863      N1864   1.324       .  A
N1863      N1869   1.313       .  A
N1863     Mn2176   2.197   1_654  S
N1864      C1874   1.357       .  A
N1865      N1866   1.320       .  A
N1865      N1867   1.314       .  A
N1866      C1875   1.360       .  A
N1867      N1868   1.314       .  A
N1867     Mn1871   2.162   1_655  S
N1868      C1875   1.350       .  A
N1869      N1870   1.315       .  A
N1870      C1874   1.355       .  A
Mn1871     N2168   2.197   1_455  S
Mn1872     N2159   2.195       .  S
C1874      C1877   1.554       .  S
C1875      C1876   1.545       .  S
C1876      C2110   1.573       .  S
C1876      C2117   1.559       .  S
C1876      C2130   1.573       .  S
C1877      C2077   1.559       .  S
C1877      C2087   1.579       .  S
C1877      C2097   1.577       .  S
C1878      C1879   1.363       .  D
C1878      C2405   1.491       .  S
C1878      C2107   1.501       .  S
C1879      C2362   1.495       .  S
C1879      C2067   1.480       .  S
C1880      C2027   1.581       .  S
C1880      C2040   1.586       .  S
C1880      C2050   1.586       .  S
C1881      C1882   1.369       .  D
C1881      C2047   1.508       .  S
C1882      C2017   1.497       .  S
C1883      C1997   1.570       .  S
C1883      C2007   1.569       .  S
C1883      C2020   1.560       .  S
C1884      C1885   1.368       .  D
C1884      C2285   1.501       .  S
C1884      C1987   1.503       .  S
C1885      C2315   1.495       .  S
C1885      C2037   1.504       .  S
C1886      C1957   1.544       .  S
C1886      C1967   1.564       .  S
C1886      C2070   1.560       .  S
C1887      C1888   1.368       .  D
C1887      C1950   1.538       .  S
C1888      C1970   1.474       .  S
C1889      C1937   1.558       .  S
C1889      C1947   1.581       .  S
C1889      C1990   1.579       .  S
C1890      C1891   1.352       .  D
C1890      C1960   1.485       .  S
C1891      C1917   1.492       .  S
C1892      C1910   1.574       .  S
C1892      C1930   1.551       .  S
C1892      C1977   1.568       .  S
C1893      C1900   1.594       .  S
C1893      C1920   1.546       .  S
C1893      C2060   1.565       .  S
C1894      C1895   1.371       .  D
C1894      C1897   1.483       .  S
C1895      C1907   1.544       .  S
C1896      C1897   1.392       .  A
C1896      C1901   1.372       .  A
C1896      F1903   1.354       .  S
C1897      C1898   1.412       .  A
C1898      C1899   1.423       .  A
C1898      F1905   1.356       .  S
C1899      C1900   1.435       .  A
C1899      F1904   1.356       .  S
C1900      C1901   1.419       .  A
C1901      F1902   1.361       .  S
C1906      C1907   1.411       .  A
C1906      C1911   1.385       .  A
C1906      F1913   1.350       .  S
C1907      C1908   1.432       .  A
C1908      C1909   1.410       .  A
C1908      F1915   1.346       .  S
C1909      C1910   1.409       .  A
C1909      F1914   1.357       .  S
C1910      C1911   1.416       .  A
C1911      F1912   1.343       .  S
C1916      C1917   1.407       .  A
C1916      C1921   1.390       .  A
C1916      F1923   1.352       .  S
C1917      C1918   1.398       .  A
C1918      C1919   1.400       .  A
C1918      F1925   1.357       .  S
C1919      C1920   1.425       .  A
C1919      F1924   1.356       .  S
C1920      C1921   1.409       .  A
C1921      F1922   1.358       .  S
C1926      C1927   1.409       .  A
C1926      C1931   1.408       .  A
C1926      F1933   1.353       .  S
C1927      C1928   1.390       .  A
C1928      C1929   1.374       .  A
C1928      F1935   1.351       .  S
C1929      C1930   1.423       .  A
C1929      F1934   1.359       .  S
C1930      C1931   1.416       .  A
C1931      F1932   1.357       .  S
C1936      C1937   1.419       .  A
C1936      C1941   1.409       .  A
C1936      F1943   1.357       .  S
C1937      C1938   1.425       .  A
C1938      C1939   1.378       .  A
C1938      F1945   1.359       .  S
C1939      C1940   1.392       .  A
C1939      F1944   1.353       .  S
C1940      C1941   1.408       .  A
C1941      F1942   1.354       .  S
C1946      C1947   1.420       .  A
C1946      C1951   1.388       .  A
C1946      F1953   1.342       .  S
C1947      C1948   1.417       .  A
C1948      C1949   1.415       .  A
C1948      F1955   1.357       .  S
C1949      C1950   1.426       .  A
C1949      F1954   1.346       .  S
C1950      C1951   1.403       .  A
C1951      F1952   1.353       .  S
C1956      C1957   1.423       .  A
C1956      C1961   1.400       .  A
C1956      F1963   1.356       .  S
C1957      C1958   1.413       .  A
C1958      C1959   1.384       .  A
C1958      F1965   1.359       .  S
C1959      C1960   1.403       .  A
C1959      F1964   1.351       .  S
C1960      C1961   1.398       .  A
C1961      F1962   1.357       .  S
C1966      C1967   1.418       .  A
C1966      C1971   1.393       .  A
C1966      F1973   1.360       .  S
C1967      C1968   1.424       .  A
C1968      C1969   1.400       .  A
C1968      F1975   1.357       .  S
C1969      C1970   1.398       .  A
C1969      F1974   1.357       .  S
C1970      C1971   1.403       .  A
C1971      F1972   1.356       .  S
C1976      C1977   1.433       .  A
C1976      C1981   1.407       .  A
C1976      F1983   1.357       .  S
C1977      C1978   1.420       .  A
C1978      C1979   1.387       .  A
C1978      F1985   1.356       .  S
C1979      C1980   1.397       .  A
C1979      F1984   1.350       .  S
C1980      C2189   1.501   1_554  S
C1980      C1981   1.403       .  A
C1981      F1982   1.355       .  S
C1986      C1987   1.400       .  A
C1986      C1991   1.398       .  A
C1986      F1993   1.353       .  S
C1987      C1988   1.402       .  A
C1988      C1989   1.403       .  A
C1988      F1995   1.359       .  S
C1989      C1990   1.433       .  A
C1989      F1994   1.358       .  S
C1990      C1991   1.423       .  A
C1991      F1992   1.355       .  S
C1996      C1997   1.420       .  A
C1996      C2001   1.410       .  A
C1996      F2003   1.356       .  S
C1997      C1998   1.419       .  A
C1998      C1999   1.399       .  A
C1998      F2005   1.359       .  S
C1999      C2000   1.402       .  A
C1999      F2004   1.357       .  S
C2000      C2001   1.407       .  A
C2001      F2002   1.357       .  S
C2006      C2007   1.421       .  A
C2006      C2011   1.397       .  A
C2006      F2013   1.358       .  S
C2007      C2008   1.423       .  A
C2008      C2009   1.405       .  A
C2008      F2015   1.356       .  S
C2009      C2010   1.404       .  A
C2009      F2014   1.357       .  S
C2010      C2190   1.495   1_554  S
C2010      C2011   1.399       .  A
C2011      F2012   1.358       .  S
C2016      C2017   1.404       .  A
C2016      C2021   1.397       .  A
C2016      F2023   1.356       .  S
C2017      C2018   1.405       .  A
C2018      C2019   1.409       .  A
C2018      F2025   1.357       .  S
C2019      C2020   1.421       .  A
C2019      F2024   1.356       .  S
C2020      C2021   1.417       .  A
C2021      F2022   1.356       .  S
C2026      C2027   1.419       .  A
C2026      C2031   1.414       .  A
C2026      F2033   1.357       .  S
C2027      C2028   1.432       .  A
C2028      C2029   1.387       .  A
C2028      F2035   1.361       .  S
C2029      C2030   1.391       .  A
C2029      F2034   1.359       .  S
C2030      C2031   1.410       .  A
C2031      F2032   1.357       .  S
C2036      C2037   1.404       .  A
C2036      C2041   1.398       .  A
C2036      F2043   1.354       .  S
C2037      C2038   1.407       .  A
C2038      C2039   1.398       .  A
C2038      F2045   1.346       .  S
C2039      C2040   1.410       .  A
C2039      F2044   1.356       .  S
C2040      C2041   1.424       .  A
C2041      F2042   1.352       .  S
C2046      C2047   1.400       .  A
C2046      C2051   1.389       .  A
C2046      F2053   1.355       .  S
C2047      C2048   1.408       .  A
C2048      C2049   1.414       .  A
C2048      F2055   1.354       .  S
C2049      C2050   1.428       .  A
C2049      F2054   1.352       .  S
C2050      C2051   1.424       .  A
C2051      F2052   1.356       .  S
C2056      C2057   1.398       .  A
C2056      C2061   1.392       .  A
C2056      F2063   1.353       .  S
C2057      C2184   1.495   1_554  S
C2057      C2058   1.406       .  A
C2058      C2059   1.408       .  A
C2058      F2065   1.357       .  S
C2059      C2060   1.422       .  A
C2059      F2064   1.355       .  S
C2060      C2061   1.426       .  A
C2061      F2062   1.358       .  S
C2066      C2067   1.399       .  A
C2066      C2071   1.400       .  A
C2066      F2073   1.357       .  S
C2067      C2068   1.398       .  A
C2068      C2069   1.388       .  A
C2068      F2075   1.355       .  S
C2069      C2070   1.419       .  A
C2069      F2074   1.358       .  S
C2070      C2071   1.424       .  A
C2071      F2072   1.356       .  S
C2076      C2077   1.421       .  A
C2076      C2081   1.400       .  A
C2076      F2083   1.358       .  S
C2077      C2078   1.420       .  A
C2078      C2079   1.401       .  A
C2078      F2085   1.357       .  S
C2079      C2080   1.403       .  A
C2079      F2084   1.356       .  S
C2080      C2081   1.402       .  A
C2081      F2082   1.356       .  S
C2086      C2087   1.420       .  A
C2086      C2091   1.403       .  A
C2086      F2093   1.359       .  S
C2087      C2088   1.428       .  A
C2088      C2089   1.408       .  A
C2088      F2095   1.356       .  S
C2089      C2090   1.401       .  A
C2089      F2094   1.358       .  S
C2090      C2091   1.409       .  A
C2091      F2092   1.353       .  S
C2096      C2097   1.424       .  A
C2096      C2101   1.392       .  A
C2096      F2103   1.358       .  S
C2097      C2098   1.423       .  A
C2098      C2099   1.410       .  A
C2098      F2105   1.356       .  S
C2099      C2100   1.404       .  A
C2099      F2104   1.357       .  S
C2100      C2183   1.491   1_554  S
C2100      C2101   1.398       .  A
C2101      F2102   1.355       .  S
C2106      C2107   1.403       .  A
C2106      C2111   1.408       .  A
C2106      F2113   1.357       .  S
C2107      C2108   1.404       .  A
C2108      C2109   1.400       .  A
C2108      F2115   1.354       .  S
C2109      C2110   1.420       .  A
C2109      F2114   1.358       .  S
C2110      C2111   1.422       .  A
C2111      F2112   1.356       .  S
C2116      C2117   1.416       .  A
C2116      C2121   1.406       .  A
C2116      F2123   1.356       .  S
C2117      C2118   1.424       .  A
C2118      C2119   1.397       .  A
C2118      F2125   1.358       .  S
C2119      C2120   1.398       .  A
C2119      F2124   1.358       .  S
C2120      C2121   1.409       .  A
C2121      F2122   1.355       .  S
C2126      C2127   1.401       .  A
C2126      C2131   1.402       .  A
C2126      F2133   1.357       .  S
C2127      C2128   1.402       .  A
C2128      C2129   1.400       .  A
C2128      F2135   1.356       .  S
C2129      C2130   1.425       .  A
C2129      F2134   1.359       .  S
C2130      C2131   1.423       .  A
C2131      F2132   1.356       .  S
N2136      N2137   1.319       .  A
N2136      N2142   1.314       .  A
N2136     Mn2165   2.169       .  S
N2137      C2144   1.352       .  A
N2138      N2140   1.314       .  A
N2138      N2139   1.308       .  A
N2139      C2145   1.353       .  A
N2140      N2141   1.325       .  A
N2141      C2145   1.354       .  A
N2142      N2143   1.310       .  A
N2143      C2144   1.353       .  A
C2144      C2197   1.510       .  S
C2145      C2194   1.522       .  S
N2146      N2152   1.312       .  A
N2146      N2147   1.319       .  A
N2147      C2155   1.356       .  A
N2148      N2149   1.331       .  A
N2148      N2150   1.307       .  A
N2148     Mn2154   2.214   1_565  S
N2149      C2156   1.369       .  A
N2150      N2151   1.300       .  A
N2151      C2156   1.336       .  A
N2152      N2153   1.320       .  A
N2153      C2155   1.357       .  A
C2155      C2191   1.559       .  S
C2156      C2198   1.566       .  S
N2157      N2158   1.310       .  A
N2157      N2163   1.312       .  A
N2158      C2166   1.349       .  A
N2159      N2161   1.313       .  A
N2159      N2160   1.318       .  A
N2160      C2167   1.354       .  A
N2161      N2162   1.320       .  A
N2162      C2167   1.359       .  A
N2163      N2164   1.327       .  A
N2163     Mn2177   2.226       .  S
N2164      C2166   1.364       .  A
Mn2165    Cl2178   2.532       .  S
C2166      C2185   1.550       .  S
C2167      C2188   1.562       .  S
N2168      N2169   1.324       .  A
N2168      N2174   1.313       .  A
N2169      C2179   1.357       .  A
N2170      N2171   1.320       .  A
N2170      N2172   1.314       .  A
N2171      C2180   1.360       .  A
N2172      N2173   1.314       .  A
N2172     Mn2176   2.162   1_655  S
N2173      C2180   1.350       .  A
N2174      N2175   1.315       .  A
N2175      C2179   1.355       .  A
C2179      C2182   1.554       .  S
C2180      C2181   1.545       .  S
C2181      C2415   1.573       .  S
C2181      C2422   1.559       .  S
C2181      C2435   1.573       .  S
C2182      C2382   1.559       .  S
C2182      C2392   1.579       .  S
C2182      C2402   1.577       .  S
C2183      C2184   1.363       .  D
C2183      C2412   1.501       .  S
C2184      C2372   1.480       .  S
C2185      C2332   1.581       .  S
C2185      C2345   1.586       .  S
C2185      C2355   1.586       .  S
C2186      C2187   1.369       .  D
C2186      C2352   1.508       .  S
C2187      C2322   1.497       .  S
C2188      C2302   1.570       .  S
C2188      C2312   1.569       .  S
C2188      C2325   1.560       .  S
C2189      C2190   1.368       .  D
C2189      C2292   1.503       .  S
C2190      C2342   1.504       .  S
C2191      C2262   1.544       .  S
C2191      C2272   1.564       .  S
C2191      C2375   1.560       .  S
C2192      C2193   1.368       .  D
C2192      C2255   1.538       .  S
C2193      C2275   1.474       .  S
C2194      C2242   1.558       .  S
C2194      C2252   1.581       .  S
C2194      C2295   1.579       .  S
C2195      C2196   1.352       .  D
C2195      C2265   1.485       .  S
C2196      C2222   1.492       .  S
C2197      C2215   1.574       .  S
C2197      C2235   1.551       .  S
C2197      C2282   1.568       .  S
C2198      C2205   1.594       .  S
C2198      C2225   1.546       .  S
C2198      C2365   1.565       .  S
C2199      C2200   1.371       .  D
C2199      C2202   1.483       .  S
C2200      C2212   1.544       .  S
C2201      C2202   1.392       .  A
C2201      C2206   1.372       .  A
C2201      F2208   1.354       .  S
C2202      C2203   1.412       .  A
C2203      C2204   1.423       .  A
C2203      F2210   1.356       .  S
C2204      C2205   1.435       .  A
C2204      F2209   1.356       .  S
C2205      C2206   1.419       .  A
C2206      F2207   1.361       .  S
C2211      C2212   1.411       .  A
C2211      C2216   1.385       .  A
C2211      F2218   1.350       .  S
C2212      C2213   1.432       .  A
C2213      C2214   1.410       .  A
C2213      F2220   1.346       .  S
C2214      C2215   1.409       .  A
C2214      F2219   1.357       .  S
C2215      C2216   1.416       .  A
C2216      F2217   1.343       .  S
C2221      C2222   1.407       .  A
C2221      C2226   1.390       .  A
C2221      F2228   1.352       .  S
C2222      C2223   1.398       .  A
C2223      C2224   1.400       .  A
C2223      F2230   1.357       .  S
C2224      C2225   1.425       .  A
C2224      F2229   1.356       .  S
C2225      C2226   1.409       .  A
C2226      F2227   1.358       .  S
C2231      C2232   1.409       .  A
C2231      C2236   1.408       .  A
C2231      F2238   1.353       .  S
C2232      C2233   1.390       .  A
C2233      C2234   1.374       .  A
C2233      F2240   1.351       .  S
C2234      C2235   1.423       .  A
C2234      F2239   1.359       .  S
C2235      C2236   1.416       .  A
C2236      F2237   1.357       .  S
C2241      C2242   1.419       .  A
C2241      C2246   1.409       .  A
C2241      F2248   1.357       .  S
C2242      C2243   1.425       .  A
C2243      C2244   1.378       .  A
C2243      F2250   1.359       .  S
C2244      C2245   1.392       .  A
C2244      F2249   1.353       .  S
C2245      C2246   1.408       .  A
C2246      F2247   1.354       .  S
C2251      C2252   1.420       .  A
C2251      C2256   1.388       .  A
C2251      F2258   1.342       .  S
C2252      C2253   1.417       .  A
C2253      C2254   1.415       .  A
C2253      F2260   1.357       .  S
C2254      C2255   1.426       .  A
C2254      F2259   1.346       .  S
C2255      C2256   1.403       .  A
C2256      F2257   1.353       .  S
C2261      C2262   1.423       .  A
C2261      C2266   1.400       .  A
C2261      F2268   1.356       .  S
C2262      C2263   1.413       .  A
C2263      C2264   1.384       .  A
C2263      F2270   1.359       .  S
C2264      C2265   1.403       .  A
C2264      F2269   1.351       .  S
C2265      C2266   1.398       .  A
C2266      F2267   1.357       .  S
C2271      C2272   1.418       .  A
C2271      C2276   1.393       .  A
C2271      F2278   1.360       .  S
C2272      C2273   1.424       .  A
C2273      C2274   1.400       .  A
C2273      F2280   1.357       .  S
C2274      C2275   1.398       .  A
C2274      F2279   1.357       .  S
C2275      C2276   1.403       .  A
C2276      F2277   1.356       .  S
C2281      C2282   1.433       .  A
C2281      C2286   1.407       .  A
C2281      F2288   1.357       .  S
C2282      C2283   1.420       .  A
C2283      C2284   1.387       .  A
C2283      F2290   1.356       .  S
C2284      C2285   1.397       .  A
C2284      F2289   1.350       .  S
C2285      C2286   1.403       .  A
C2286      F2287   1.355       .  S
C2291      C2292   1.400       .  A
C2291      C2296   1.398       .  A
C2291      F2298   1.353       .  S
C2292      C2293   1.402       .  A
C2293      C2294   1.403       .  A
C2293      F2300   1.359       .  S
C2294      C2295   1.433       .  A
C2294      F2299   1.358       .  S
C2295      C2296   1.423       .  A
C2296      F2297   1.355       .  S
C2301      C2302   1.420       .  A
C2301      C2306   1.410       .  A
C2301      F2308   1.356       .  S
C2302      C2303   1.419       .  A
C2303      C2304   1.399       .  A
C2303      F2310   1.359       .  S
C2304      C2305   1.402       .  A
C2304      F2309   1.357       .  S
C2305      C2306   1.407       .  A
C2306      F2307   1.357       .  S
C2311      C2312   1.421       .  A
C2311      C2316   1.397       .  A
C2311      F2318   1.358       .  S
C2312      C2313   1.423       .  A
C2313      C2314   1.405       .  A
C2313      F2320   1.356       .  S
C2314      C2315   1.404       .  A
C2314      F2319   1.357       .  S
C2315      C2316   1.399       .  A
C2316      F2317   1.358       .  S
C2321      C2322   1.404       .  A
C2321      C2326   1.397       .  A
C2321      F2328   1.356       .  S
C2322      C2323   1.405       .  A
C2323      C2324   1.409       .  A
C2323      F2330   1.357       .  S
C2324      C2325   1.421       .  A
C2324      F2329   1.356       .  S
C2325      C2326   1.417       .  A
C2326      F2327   1.356       .  S
C2331      C2332   1.419       .  A
C2331      C2336   1.414       .  A
C2331      F2338   1.357       .  S
C2332      C2333   1.432       .  A
C2333      C2334   1.387       .  A
C2333      F2340   1.361       .  S
C2334      C2335   1.391       .  A
C2334      F2339   1.359       .  S
C2335      C2336   1.410       .  A
C2336      F2337   1.357       .  S
C2341      C2342   1.404       .  A
C2341      C2346   1.398       .  A
C2341      F2348   1.354       .  S
C2342      C2343   1.407       .  A
C2343      C2344   1.398       .  A
C2343      F2350   1.346       .  S
C2344      C2345   1.410       .  A
C2344      F2349   1.356       .  S
C2345      C2346   1.424       .  A
C2346      F2347   1.352       .  S
C2351      C2352   1.400       .  A
C2351      C2356   1.389       .  A
C2351      F2358   1.355       .  S
C2352      C2353   1.408       .  A
C2353      C2354   1.414       .  A
C2353      F2360   1.354       .  S
C2354      C2355   1.428       .  A
C2354      F2359   1.352       .  S
C2355      C2356   1.424       .  A
C2356      F2357   1.356       .  S
C2361      C2362   1.398       .  A
C2361      C2366   1.392       .  A
C2361      F2368   1.353       .  S
C2362      C2363   1.406       .  A
C2363      C2364   1.408       .  A
C2363      F2370   1.357       .  S
C2364      C2365   1.422       .  A
C2364      F2369   1.355       .  S
C2365      C2366   1.426       .  A
C2366      F2367   1.358       .  S
C2371      C2372   1.399       .  A
C2371      C2376   1.400       .  A
C2371      F2378   1.357       .  S
C2372      C2373   1.398       .  A
C2373      C2374   1.388       .  A
C2373      F2380   1.355       .  S
C2374      C2375   1.419       .  A
C2374      F2379   1.358       .  S
C2375      C2376   1.424       .  A
C2376      F2377   1.356       .  S
C2381      C2382   1.421       .  A
C2381      C2386   1.400       .  A
C2381      F2388   1.358       .  S
C2382      C2383   1.420       .  A
C2383      C2384   1.401       .  A
C2383      F2390   1.357       .  S
C2384      C2385   1.403       .  A
C2384      F2389   1.356       .  S
C2385      C2386   1.402       .  A
C2386      F2387   1.356       .  S
C2391      C2392   1.420       .  A
C2391      C2396   1.403       .  A
C2391      F2398   1.359       .  S
C2392      C2393   1.428       .  A
C2393      C2394   1.408       .  A
C2393      F2400   1.356       .  S
C2394      C2395   1.401       .  A
C2394      F2399   1.358       .  S
C2395      C2396   1.409       .  A
C2396      F2397   1.353       .  S
C2401      C2402   1.424       .  A
C2401      C2406   1.392       .  A
C2401      F2408   1.358       .  S
C2402      C2403   1.423       .  A
C2403      C2404   1.410       .  A
C2403      F2410   1.356       .  S
C2404      C2405   1.404       .  A
C2404      F2409   1.357       .  S
C2405      C2406   1.398       .  A
C2406      F2407   1.355       .  S
C2411      C2412   1.403       .  A
C2411      C2416   1.408       .  A
C2411      F2418   1.357       .  S
C2412      C2413   1.404       .  A
C2413      C2414   1.400       .  A
C2413      F2420   1.354       .  S
C2414      C2415   1.420       .  A
C2414      F2419   1.358       .  S
C2415      C2416   1.422       .  A
C2416      F2417   1.356       .  S
C2421      C2422   1.416       .  A
C2421      C2426   1.406       .  A
C2421      F2428   1.356       .  S
C2422      C2423   1.424       .  A
C2423      C2424   1.397       .  A
C2423      F2430   1.358       .  S
C2424      C2425   1.398       .  A
C2424      F2429   1.358       .  S
C2425      C2426   1.409       .  A
C2426      F2427   1.355       .  S
C2431      C2432   1.401       .  A
C2431      C2436   1.402       .  A
C2431      F2438   1.357       .  S
C2432      C2433   1.402       .  A
C2433      C2434   1.400       .  A
C2433      F2440   1.356       .  S
C2434      C2435   1.425       .  A
C2434      F2439   1.359       .  S
C2435      C2436   1.423       .  A
C2436      F2437   1.356       .  S
