geometry optimzed in LAMMPS
_audit_creation_date              2020-12-01 
_audit_creation_method            'lammps2cif' 
_symmetry_space_group_name_H-M    'P1' 
_symmetry_Int_Tables_number       1 
_symmetry_cell_setting            triclinic 
loop_ 
_symmetry_equiv_pos_as_xyz 
  x,y,z 
_cell_length_a                    22.56177912 
_cell_length_b                    22.701902707116155 
_cell_length_c                    22.967770441863816 
_cell_angle_alpha                 89.19476540689466 
_cell_angle_beta                  91.13391165008177 
_cell_angle_gamma                 89.35971108880338 
loop_ 
_atom_site_label 
_atom_site_type_symbol 
_atom_site_fract_x 
_atom_site_fract_y 
_atom_site_fract_z 
_atom_site_charge 
O1          O  0.97400806  0.19853262  0.57244174    -0.74300
O2          O  0.06097987  0.19872323  0.42865885    -0.75300
O3          O  0.09547017  0.21097995  0.54656377    -0.63900
O4          O  0.93893640  0.19434434  0.45335555    -0.72300
O5          O  0.93514494  0.29201618  0.44858556    -0.71800
O6          O  0.08137626  0.30770248  0.53941775    -0.63100
O7          O  0.05592836  0.29572154  0.41818420    -0.75600
O8          O  0.96103049  0.29532645  0.57054328    -0.74400
Cu9        Cu  0.01771383  0.19732621  0.50056039     1.04600
Cu10       Cu  0.00813110  0.30118675  0.49407739     1.04300
C11         C  0.95283465  0.24473985  0.59490455     0.91900
C12         C  0.07223127  0.24499106  0.39954960     0.91100
C13         C  0.11175874  0.26370771  0.55787703     0.83200
C14         C  0.91370463  0.24243826  0.43533051     0.89500
C15         C  0.81219626  0.19556468  0.80212530    -0.03800
O16         O  0.52757607  0.94343493  0.69189696    -0.74300
O17         O  0.44141705  0.09336952  0.71793630    -0.75300
O18         O  0.56347741  0.06483058  0.70303840    -0.63900
O19         O  0.40715430  0.97375099  0.71292827    -0.72300
O20         O  0.42578122  0.96551055  0.80778919    -0.71800
O21         O  0.57178258  0.05021702  0.79835657    -0.63100
O22         O  0.45423248  0.08526473  0.81387094    -0.75600
O23         O  0.54331329  0.93133706  0.78704125    -0.74400
Cu24       Cu  0.48459151  0.01916566  0.70273811     1.04600
Cu25       Cu  0.49936430  0.00755963  0.80474514     1.04300
C26         C  0.54859928  0.91320224  0.73476172     0.91900
C27         C  0.43346017  0.11299539  0.76886440     0.91100
C28         C  0.59101532  0.07284534  0.75176323     0.83200
C29         C  0.39223335  0.95639511  0.76399544     0.89500
O30         O  0.45348776  0.92282926  0.30991280    -0.74300
O31         O  0.54217450  0.07090823  0.29065590    -0.75300
O32         O  0.41871980  0.04482979  0.29700008    -0.63900
O33         O  0.57514019  0.95048322  0.29743610    -0.72300
O34         O  0.56201699  0.94565545  0.20183286    -0.71800
O35         O  0.41359452  0.03432661  0.20103151    -0.63100
O36         O  0.53482555  0.06654482  0.19422776    -0.75600
O37         O  0.44254017  0.91385446  0.21415372    -0.74400
Cu38       Cu  0.49731080  0.99769681  0.30232185     1.04600
Cu39       Cu  0.48783080  0.98994069  0.19963034     1.04300
C40         C  0.43507747  0.89412942  0.26605252     0.91900
C41         C  0.55444468  0.09128698  0.24051230     0.91100
C42         C  0.39191611  0.05358402  0.24768334     0.83200
C43         C  0.59284659  0.93380633  0.24746882     0.89500
C44         C  0.69799809  0.29297379  0.29767991    -0.03800
O45         O  0.79000343  0.42367949  0.94500660    -0.74300
O46         O  0.80086541  0.56779384  0.03465944    -0.75300
O47         O  0.79429589  0.44621974  0.06524276    -0.63900
O48         O  0.78812050  0.54414026  0.91283864    -0.72300
O49         O  0.69056470  0.54809932  0.92258870    -0.71800
O50         O  0.69612660  0.45361511  0.06599144    -0.63100
O51         O  0.70342974  0.57533075  0.04279945    -0.75600
O52         O  0.69153107  0.42511116  0.94602062    -0.74400
Cu53       Cu  0.79679870  0.49548210  0.98919929     1.04600
Cu54       Cu  0.69197169  0.50078100  0.99429420     1.04300
C55         C  0.74070212  0.40080904  0.93165422     0.91900
C56         C  0.75577108  0.59409149  0.05463489     0.91100
C57         C  0.74449385  0.43506825  0.08906548     0.83200
C58         C  0.73649752  0.56114198  0.89430394     0.89500
C59         C  0.67911300  0.69697552  0.68088799    -0.03800
C60         C  0.80878586  0.79982864  0.19787397    -0.03800
O61         O  0.94826244  0.69187118  0.44118547    -0.74300
O62         O  0.03563542  0.71002669  0.59861427    -0.75300
O63         O  0.91638090  0.70979244  0.55912103    -0.63900
O64         O  0.06906023  0.68603017  0.48156926    -0.72300
O65         O  0.07843906  0.78218267  0.46723837    -0.71800
O66         O  0.91707298  0.80626162  0.54154936    -0.63100
O67         O  0.03637517  0.80600158  0.57997871    -0.75600
O68         O  0.95934311  0.78803184  0.42715544    -0.74400
Cu69       Cu  0.99214373  0.69590985  0.52056594     1.04600
Cu70       Cu  0.99801522  0.79885453  0.50334805     1.04300
C71         C  0.94109797  0.73854527  0.40944914     0.91900
C72         C  0.04826767  0.76267286  0.61402881     0.91100
C73         C  0.89271678  0.76055841  0.56359401     0.83200
C74         C  0.09858069  0.72940234  0.46239374     0.89500
C75         C  0.31724033  0.32890851  0.70099696    -0.03800
C76         C  0.17785045  0.83000993  0.82594051    -0.03800
C77         C  0.31428468  0.67690215  0.33299998    -0.03800
C78         C  0.18450081  0.19369245  0.17711296    -0.03800
O79         O  0.30210492  0.47754178  0.92936180    -0.74300
O80         O  0.30540543  0.54993714  0.08206240    -0.75300
O81         O  0.29394120  0.43164277  0.04423032    -0.63900
O82         O  0.30589626  0.59506759  0.96639339    -0.72300
O83         O  0.20748514  0.59898416  0.96622115    -0.71800
O84         O  0.19653377  0.44479512  0.04154188    -0.63100
O85         O  0.20790471  0.56131844  0.08401612    -0.75600
O86         O  0.20378269  0.48152902  0.92400474    -0.74400
Cu87       Cu  0.30523443  0.51322414  0.00573102     1.04600
Cu88       Cu  0.20043924  0.52187470  0.00383311     1.04300
C89         C  0.25394916  0.46768598  0.90204982     0.91900
C90         C  0.25944718  0.56837345  0.10754701     0.91100
C91         C  0.24158071  0.41293916  0.05460102     0.83200
C92         C  0.25681890  0.62220435  0.95451613     0.89500
C93         C  0.94218672  0.96949919  0.05201888     0.85100
C94         C  0.98555358  0.93275573  0.01682184    -0.55100
C95         C  0.01878052  0.96380982  0.97815914     0.08100
C96         C  0.00794017  0.03140474  0.98131621     0.19000
C97         C  0.98203793  0.01418989  0.08273758    -0.55800
C98         C  0.01644749  0.04698606  0.04647160     0.08200
C99         C  0.90664511  0.00601362  0.00628876    -0.55300
C100        C  0.94056318  0.03871054  0.96917511     0.08700
H101        H  0.98880211  0.88527683  0.02223566     0.13300
H102        H  0.03519350  0.05802317  0.95139531    -0.01000
H103        H  0.98513742  0.01893679  0.12948220     0.13600
H104        H  0.85852615  0.00597028  0.00375478     0.13400
C105        C  0.55899870  0.43938307  0.46197754     0.85100
C106        C  0.52151408  0.40594336  0.50620724    -0.55100
C107        C  0.48621942  0.44069357  0.53981273     0.08100
C108        C  0.49273542  0.50759496  0.52602699     0.19000
C109        C  0.51418647  0.47774251  0.42705235    -0.55800
C110        C  0.47904452  0.51350567  0.45985323     0.08200
C111        C  0.59396679  0.48284162  0.49974171    -0.55300
C112        C  0.56020474  0.51980093  0.53252170     0.08700
H113        H  0.52187754  0.35824330  0.50933612     0.13300
H114        H  0.46448994  0.53635089  0.55283324    -0.01000
H115        H  0.51110142  0.47676059  0.37983228     0.13600
H116        H  0.64187142  0.48268999  0.50263548     0.13400
C117        C  0.26150254  0.26025562  0.12393041    -0.14700
C118        C  0.20273220  0.24812249  0.14088987     0.07500
C119        C  0.15779874  0.28810703  0.12286578    -0.14700
C120        C  0.17116487  0.34048904  0.09464933    -0.14700
C121        C  0.23006693  0.35485908  0.08208114     0.07500
C122        C  0.27509751  0.31360813  0.09570984    -0.14700
H123        H  0.29741919  0.22933023  0.13249061     0.11400
H124        H  0.11194585  0.27990551  0.13310809     0.11400
H125        H  0.13474917  0.37038390  0.08377689     0.11400
H126        H  0.32061071  0.32260732  0.08480727     0.11400
C127        C  0.15588060  0.13307708  0.08545752    -0.14700
C128        C  0.13867772  0.16030960  0.13778687     0.07500
C129        C  0.07756904  0.15953344  0.15037863    -0.14700
C130        C  0.03790560  0.12596593  0.11799981    -0.14700
C131        C  0.05699664  0.09240180  0.07098608     0.07500
C132        C  0.11582639  0.09843433  0.05311625    -0.14700
H133        H  0.20139325  0.13576094  0.07166465     0.11400
H134        H  0.05939876  0.18454975  0.18561234     0.11400
H135        H  0.99203934  0.12487531  0.13103194     0.11400
H136        H  0.13159135  0.07412965  0.01616352     0.11400
C137        C  0.23582269  0.64216616  0.25404541    -0.14700
C138        C  0.29527718  0.64984320  0.27369324     0.07500
C139        C  0.34059371  0.63472366  0.23518497    -0.14700
C140        C  0.32798148  0.60910619  0.18204045    -0.14700
C141        C  0.26926524  0.59817271  0.16402097     0.07500
C142        C  0.22307633  0.61597037  0.20006449    -0.14700
H143        H  0.19874982  0.65655608  0.27941701     0.11400
H144        H  0.38665192  0.64153981  0.24723372     0.11400
H145        H  0.36509042  0.59747818  0.15513202     0.11400
H146        H  0.17734651  0.60955332  0.18669074     0.11400
C147        C  0.36170211  0.57254767  0.35265777    -0.14700
C148        C  0.35339127  0.63176214  0.36972070     0.07500
C149        C  0.37982663  0.64774161  0.42359970    -0.14700
C150        C  0.41938658  0.60927315  0.45408949    -0.14700
C151        C  0.43217216  0.55293748  0.43258212     0.07500
C152        C  0.40095187  0.53453506  0.38279234    -0.14700
H153        H  0.33820851  0.55444296  0.31575731     0.11400
H154        H  0.37209926  0.69136626  0.44055399     0.11400
H155        H  0.44161794  0.62451330  0.49317114     0.11400
H156        H  0.40693677  0.49027463  0.36676257     0.11400
C157        C  0.26832067  0.68938753  0.86901133    -0.14700
C158        C  0.25351222  0.68098755  0.92735783     0.07500
C159        C  0.21931922  0.72387785  0.95476926    -0.14700
C160        C  0.19625488  0.77219837  0.92352268    -0.14700
C161        C  0.20517756  0.77823366  0.86300782     0.07500
C162        C  0.24519411  0.73801655  0.83745116    -0.14700
H163        H  0.29399397  0.65630434  0.84678071     0.11400
H164        H  0.20751823  0.71811175  0.00000444     0.11400
H165        H  0.17084263  0.80386773  0.94752475     0.11400
H166        H  0.25599829  0.74270229  0.79190072     0.11400
C167        C  0.14335803  0.92956974  0.87318703    -0.14700
C168        C  0.13490866  0.86882621  0.86215372     0.07500
C169        C  0.08308166  0.84317062  0.88373310    -0.14700
C170        C  0.04494126  0.87454125  0.91927924    -0.14700
C171        C  0.05716937  0.93295174  0.93537060     0.07500
C172        C  0.10587160  0.96061235  0.91027123    -0.14700
H173        H  0.17890538  0.95396639  0.85389610     0.11400
H174        H  0.07292804  0.79775949  0.87414440     0.11400
H175        H  0.00582155  0.85229547  0.93420474     0.11400
H176        H  0.11593397  0.00594654  0.91993237     0.11400
C177        C  0.25260660  0.35008629  0.78905324    -0.14700
C178        C  0.29764987  0.36937558  0.75117637     0.07500
C179        C  0.32385016  0.42417233  0.76264990    -0.14700
C180        C  0.30469970  0.45857421  0.80861410    -0.14700
C181        C  0.25980606  0.43908929  0.84545881     0.07500
C182        C  0.23328956  0.38487711  0.83495326    -0.14700
H183        H  0.23225493  0.30760690  0.78288661     0.11400
H184        H  0.36089172  0.44011748  0.73820333     0.11400
H185        H  0.32744405  0.49937125  0.81752766     0.11400
H186        H  0.20046211  0.36777932  0.86433672     0.16400
C187        C  0.38899525  0.44020163  0.59347857    -0.14700
C188        C  0.44446248  0.41430105  0.58278688     0.07500
C189        C  0.45814772  0.35980637  0.60997142    -0.14700
C190        C  0.41783395  0.33173945  0.64617097    -0.14700
C191        C  0.36303792  0.35841708  0.65975082     0.07500
C192        C  0.34869625  0.41233608  0.63058472    -0.14700
H193        H  0.37595257  0.48118782  0.57194952     0.11400
H194        H  0.50016096  0.33791039  0.60283281     0.11400
H195        H  0.43005329  0.28819152  0.66179114     0.11400
H196        H  0.30607448  0.43332882  0.63717085     0.11400
C197        C  0.19481905  0.76223872  0.41975979    -0.14700
C198        C  0.15561862  0.71701765  0.43367612     0.07500
C199        C  0.17108818  0.65882395  0.41955211    -0.14700
C200        C  0.22273340  0.64661412  0.38925638    -0.14700
C201        C  0.26028598  0.69219440  0.37099316     0.07500
C202        C  0.24696593  0.74995010  0.38993897    -0.14700
H203        H  0.18517950  0.80722866  0.43186641     0.11400
H204        H  0.14248245  0.62253865  0.43064520     0.11400
H205        H  0.23229575  0.60140359  0.37785375     0.11400
H206        H  0.27612018  0.78640567  0.38187618     0.11400
C207        C  0.08256427  0.83571663  0.68631132    -0.14700
C208        C  0.07680547  0.77630522  0.67087293     0.07500
C209        C  0.09927124  0.73264971  0.70930184    -0.14700
C210        C  0.12986304  0.74845851  0.76052799    -0.14700
C211        C  0.14026144  0.80846299  0.77337782     0.07500
C212        C  0.11318457  0.85137769  0.73662251    -0.14700
H213        H  0.06436918  0.87083432  0.65878164     0.11400
H214        H  0.09391819  0.68647274  0.69945936     0.11400
H215        H  0.14521171  0.71324856  0.78921989     0.11400
H216        H  0.11792813  0.89779017  0.74582702     0.11400
C217        C  0.90803944  0.78645418  0.25612831    -0.14700
C218        C  0.84651930  0.77652902  0.25079048     0.07500
C219        C  0.82063568  0.74005319  0.29369621    -0.14700
C220        C  0.85272613  0.72219206  0.34407072    -0.14700
C221        C  0.91201390  0.73861093  0.35149019     0.07500
C222        C  0.93981665  0.76873073  0.30611630    -0.14700
H223        H  0.93228001  0.80868169  0.22240825     0.11400
H224        H  0.77436570  0.72829465  0.28966189     0.11400
H225        H  0.83021190  0.69919198  0.37868656     0.11400
H226        H  0.98592041  0.78111933  0.31064401     0.11400
C227        C  0.86686600  0.89591626  0.18420206    -0.14700
C228        C  0.84294124  0.84470115  0.15912709     0.07500
C229        C  0.84455867  0.84083262  0.09775333    -0.14700
C230        C  0.87385553  0.88281572  0.06423462    -0.14700
C231        C  0.90349681  0.93013428  0.09025336     0.07500
C232        C  0.89750543  0.93728028  0.15075848    -0.14700
H233        H  0.86286677  0.90318397  0.23047175     0.11400
H234        H  0.82210053  0.80624820  0.07459721     0.11400
H235        H  0.87483786  0.87733329  0.01748200     0.11400
H236        H  0.91568026  0.97458660  0.17312429     0.11400
C237        C  0.73156585  0.75191626  0.59791431    -0.14700
C238        C  0.73540134  0.72362738  0.65329521     0.07500
C239        C  0.79059838  0.72542491  0.68332292    -0.14700
C240        C  0.84133840  0.74403374  0.65517988    -0.14700
C241        C  0.83824914  0.76367550  0.59718880     0.07500
C242        C  0.78276633  0.77016823  0.56939946    -0.14700
H243        H  0.68929073  0.75558930  0.57491900     0.11400
H244        H  0.79565350  0.71140691  0.72827855     0.11400
H245        H  0.88388925  0.73966312  0.67767180     0.11400
H246        H  0.77947045  0.78518719  0.52447181     0.11400
C247        C  0.64344740  0.59016143  0.55395029    -0.14700
C248        C  0.58815764  0.56691163  0.56918589     0.07500
C249        C  0.56211310  0.58743588  0.62027102    -0.14700
C250        C  0.59104541  0.62934676  0.65516903    -0.14700
C251        C  0.64652940  0.65307098  0.63973604     0.07500
C252        C  0.67263473  0.63084410  0.58907040    -0.14700
H253        H  0.66516531  0.57664777  0.51467815     0.11400
H254        H  0.52016935  0.57006681  0.63424340     0.11400
H255        H  0.57010966  0.64325047  0.69477985     0.11400
H256        H  0.71666732  0.64312662  0.57642802     0.11400
C257        C  0.82546485  0.66354799  0.10257596    -0.14700
C258        C  0.76673887  0.64544465  0.09241603     0.07500
C259        C  0.72090531  0.67485923  0.12074333    -0.14700
C260        C  0.73344792  0.72282080  0.15662487    -0.14700
C261        C  0.79213077  0.74385854  0.16346965     0.07500
C262        C  0.83793310  0.71109710  0.13813962    -0.14700
H263        H  0.86236998  0.64111394  0.08272902     0.11400
H264        H  0.67549513  0.66058132  0.11555319     0.11400
H265        H  0.69674709  0.74284050  0.17879618     0.11400
H266        H  0.88369414  0.72408211  0.14401785     0.11400
C267        C  0.67993228  0.63817804  0.83995465    -0.14700
C268        C  0.72658215  0.59682302  0.84066994     0.07500
C269        C  0.75528395  0.58479594  0.78851620    -0.14700
C270        C  0.73801558  0.61492266  0.73687504    -0.14700
C271        C  0.69416009  0.66016073  0.73700943     0.07500
C272        C  0.66332503  0.66845488  0.78913441    -0.14700
H273        H  0.65520623  0.64651145  0.87902755     0.11400
H274        H  0.78942104  0.55094837  0.78729791     0.11400
H275        H  0.76035095  0.60444801  0.69696070     0.11400
H276        H  0.62547122  0.69786978  0.79125402     0.11400
C277        C  0.74829381  0.30966948  0.19905775    -0.14700
C278        C  0.71104378  0.33167583  0.24301611     0.07500
C279        C  0.68541696  0.38811476  0.23366408    -0.14700
C280        C  0.69993377  0.42240270  0.18538602    -0.14700
C281        C  0.73961340  0.40152345  0.14402525     0.07500
C282        C  0.76368091  0.34474826  0.15098799    -0.14700
H283        H  0.76681478  0.26555224  0.20300833     0.11400
H284        H  0.65269420  0.40606100  0.26233371     0.11400
H285        H  0.67859156  0.46512659  0.17937556     0.11400
H286        H  0.79208506  0.32663429  0.11808408     0.11400
C287        C  0.68587974  0.37919765  0.36767551    -0.14700
C288        C  0.66137484  0.32792780  0.34321016     0.07500
C289        C  0.60456976  0.31152614  0.36227738    -0.14700
C290        C  0.57208988  0.34753357  0.39962279    -0.14700
C291        C  0.59623797  0.39945236  0.42266411     0.07500
C292        C  0.65375334  0.41473759  0.40543045    -0.14700
H293        H  0.72957489  0.39336058  0.35522002     0.11400
H294        H  0.58418696  0.27108913  0.34873803     0.11400
H295        H  0.52765476  0.33441542  0.41053107     0.11400
H296        H  0.67398286  0.45527674  0.41899579     0.11400
C297        C  0.43703461  0.79419549  0.31083822    -0.14700
C298        C  0.40662311  0.83718405  0.27719283     0.07500
C299        C  0.34779747  0.82749481  0.26019812    -0.14700
C300        C  0.31906127  0.77644004  0.27881506    -0.14700
C301        C  0.34837407  0.73343180  0.31484570     0.07500
C302        C  0.40898220  0.74242200  0.32816037    -0.14700
H303        H  0.48291406  0.80077755  0.32375406     0.11400
H304        H  0.32344543  0.86035523  0.23445789     0.11400
H305        H  0.27311032  0.77068891  0.26582143     0.11400
H306        H  0.43579203  0.70994924  0.35142541     0.11400
C307        C  0.66385763  0.88675952  0.18182819    -0.14700
C308        C  0.64885786  0.90080420  0.23906123     0.07500
C309        C  0.68766476  0.88367128  0.28487405    -0.14700
C310        C  0.73977216  0.85160675  0.27326803    -0.14700
C311        C  0.75304146  0.83489044  0.21564779     0.07500
C312        C  0.71482521  0.85519927  0.17043779    -0.14700
H313        H  0.63598685  0.89994553  0.14487957     0.11400
H314        H  0.67798749  0.89524822  0.32928714     0.11400
H315        H  0.76945089  0.84113741  0.30947435     0.11400
H316        H  0.72393125  0.84533046  0.12547992     0.11400
C317        C  0.28981905  0.06005409  0.20835962    -0.14700
C318        C  0.33537464  0.08577175  0.24127282     0.07500
C319        C  0.33112730  0.14540836  0.25495188    -0.14700
C320        C  0.28306485  0.17937991  0.23355880    -0.14700
C321        C  0.23844701  0.15483261  0.19717731     0.07500
C322        C  0.24159319  0.09360476  0.18753038    -0.14700
H323        H  0.29248694  0.01385184  0.19730694     0.11400
H324        H  0.36640517  0.16637770  0.27937923     0.11400
H325        H  0.28110188  0.22560204  0.24446972     0.11400
H326        H  0.20696248  0.07049498  0.16466247     0.11400
C327        C  0.57378304  0.19900875  0.22818011    -0.14700
C328        C  0.59485077  0.14157247  0.23871110     0.07500
C329        C  0.65261482  0.13304458  0.26079152    -0.14700
C330        C  0.68733719  0.18094219  0.27656708    -0.14700
C331        C  0.66412765  0.23901033  0.27331472     0.07500
C332        C  0.60864186  0.24725191  0.24411105    -0.14700
H333        H  0.52914270  0.20653720  0.21128876     0.11400
H334        H  0.66993196  0.08883889  0.26850441     0.11400
H335        H  0.73175630  0.17137809  0.29250714     0.11400
H336        H  0.59046861  0.29123393  0.23748001     0.11400
C337        C  0.55833905  0.82047474  0.67837579    -0.14700
C338        C  0.57940049  0.85725938  0.72273766     0.07500
C339        C  0.63219680  0.84233230  0.75233462    -0.14700
C340        C  0.66374861  0.79172619  0.73749459    -0.14700
C341        C  0.64171299  0.75243119  0.69503144     0.07500
C342        C  0.58884990  0.76855706  0.66478194    -0.14700
H343        H  0.51815682  0.83205061  0.65405345     0.11400
H344        H  0.65010789  0.87086879  0.78558050     0.11400
H345        H  0.70538536  0.78238733  0.76020223     0.11400
H346        H  0.57160932  0.74247139  0.62944018     0.11400
C347        C  0.29987639  0.90307696  0.73197746    -0.14700
C348        C  0.33626797  0.92609131  0.77589050     0.07500
C349        C  0.32045133  0.91821254  0.83434718    -0.14700
C350        C  0.27008531  0.88776019  0.84886281    -0.14700
C351        C  0.23203586  0.86527501  0.80565257     0.07500
C352        C  0.24866865  0.87221769  0.74663584    -0.14700
H353        H  0.31173172  0.90756736  0.68668580     0.11400
H354        H  0.34738611  0.93521941  0.86971958     0.11400
H355        H  0.26025776  0.88206700  0.89456874     0.11400
H356        H  0.22375316  0.85278281  0.71137224     0.11400
C357        C  0.33975267  0.16669010  0.75192153    -0.14700
C358        C  0.39822180  0.16739249  0.77306169     0.07500
C359        C  0.42553298  0.22164864  0.78257243    -0.14700
C360        C  0.39676279  0.27416494  0.76452286    -0.14700
C361        C  0.34237745  0.27263533  0.73279779     0.07500
C362        C  0.31153072  0.21872264  0.73351903    -0.14700
H363        H  0.31730853  0.12520976  0.74574517     0.11400
H364        H  0.47069073  0.22313617  0.79933527     0.11400
H365        H  0.41979602  0.31542506  0.76965142     0.11400
H366        H  0.26633554  0.21552614  0.71759589     0.11400
C367        C  0.75594902  0.29425125  0.81004164    -0.14700
C368        C  0.79202919  0.24995560  0.83739216     0.07500
C369        C  0.79946406  0.25243547  0.89858007    -0.14700
C370        C  0.77650428  0.29921577  0.92976080    -0.14700
C371        C  0.74447056  0.34468875  0.90152230     0.07500
C372        C  0.73333625  0.34161105  0.84156090    -0.14700
H373        H  0.74622403  0.29253354  0.76374521     0.11400
H374        H  0.82172542  0.21802459  0.92368244     0.11400
H375        H  0.78610115  0.30132463  0.97612352     0.11400
H376        H  0.70995345  0.37718333  0.81871689     0.11400
C377        C  0.71390482  0.15175838  0.82775910    -0.14700
C378        C  0.75286202  0.16700033  0.78313040     0.07500
C379        C  0.73393790  0.15668368  0.72479543    -0.14700
C380        C  0.68069294  0.12686173  0.71285753    -0.14700
C381        C  0.64475499  0.10891242  0.75878957     0.07500
C382        C  0.66121488  0.12403126  0.81590429    -0.14700
H383        H  0.72530450  0.15977915  0.87294704     0.11400
H384        H  0.75972801  0.17076310  0.68816938     0.11400
H385        H  0.66824603  0.11715729  0.66827341     0.11400
H386        H  0.63396956  0.11302444  0.85272264     0.11400
C387        C  0.90423437  0.16906075  0.86715801    -0.14700
C388        C  0.85051138  0.15108370  0.84030393     0.07500
C389        C  0.83417607  0.09159358  0.84918092    -0.14700
C390        C  0.86437486  0.05528846  0.88967188    -0.14700
C391        C  0.91361403  0.07582612  0.92114799     0.07500
C392        C  0.93492039  0.13222001  0.90765122    -0.14700
H393        H  0.92033366  0.21319013  0.85944177     0.11400
H394        H  0.79738744  0.07234085  0.82579183     0.11400
H395        H  0.84870964  0.01088240  0.89677602     0.11400
H396        H  0.97365708  0.14886733  0.93030114     0.11400
C397        C  0.86304160  0.28310398  0.34837901    -0.14700
C398        C  0.86117953  0.24443579  0.39628576     0.07500
C399        C  0.80669470  0.22064109  0.41204716    -0.14700
C400        C  0.75477317  0.23621314  0.38024597    -0.14700
C401        C  0.75639434  0.27450736  0.33093146     0.07500
C402        C  0.81185020  0.29875403  0.31706642    -0.14700
H403        H  0.90424929  0.30409946  0.33699332     0.11400
H404        H  0.80376212  0.19286891  0.45057656     0.11400
H405        H  0.71287675  0.21870425  0.39431103     0.11400
H406        H  0.81655178  0.33241776  0.28395111     0.11400
C407        C  0.16012688  0.32524301  0.63147270    -0.14700
C408        C  0.16420273  0.27713984  0.59409861     0.07500
C409        C  0.21927651  0.24947775  0.58694396    -0.14700
C410        C  0.26911477  0.26900061  0.61842271    -0.14700
C411        C  0.26389458  0.31381605  0.66048070     0.07500
C412        C  0.20909860  0.34392170  0.66331869    -0.14700
H413        H  0.11857678  0.34905691  0.63582409     0.11400
H414        H  0.22402619  0.21411105  0.55617515     0.11400
H415        H  0.31136236  0.24707092  0.61229998     0.11400
H416        H  0.20324679  0.38234037  0.68992341     0.11400
C417        C  0.12523156  0.28210493  0.30978187    -0.14700
C418        C  0.10272814  0.23601313  0.34370523     0.07500
C419        C  0.10920619  0.17791206  0.32406192    -0.14700
C420        C  0.13559483  0.16603938  0.27159366    -0.14700
C421        C  0.15622230  0.21161955  0.23550640     0.07500
C422        C  0.15262197  0.27004449  0.25666072    -0.14700
H423        H  0.12215765  0.32713480  0.32445528     0.11400
H424        H  0.09306016  0.14074076  0.34892962     0.11400
H425        H  0.13883301  0.12055736  0.25823019     0.11400
H426        H  0.17124527  0.30671073  0.23316694     0.11400
C427        C  0.90068450  0.28224496  0.68446246    -0.14700
C428        C  0.91826992  0.23599740  0.64864629     0.07500
C429        C  0.90368453  0.17802104  0.66497433    -0.14700
C430        C  0.87111688  0.16647975  0.71433729    -0.14700
C431        C  0.85056153  0.21230235  0.74938745     0.07500
C432        C  0.86813027  0.27049423  0.73490497    -0.14700
H433        H  0.91263081  0.32716055  0.67394302     0.11400
H434        H  0.91685598  0.14075632  0.63910093     0.11400
H435        H  0.86038248  0.12113263  0.72448199     0.11400
H436        H  0.85744998  0.30734417  0.76210308     0.11400
loop_ 
_geom_bond_atom_site_label_1 
_geom_bond_atom_site_label_2 
_geom_bond_distance 
_geom_bond_site_symmetry_2 
_ccdc_geom_bond_type 
O1           Cu9   1.940   1_655  S
O1           C11   1.268       .  A
O2           Cu9   1.935       .  S
O2           C12   1.268       .  A
O3           Cu9   2.059       .  S
O3           C13   1.285       .  A
O4           Cu9   2.066   1_655  S
O4           C14   1.285       .  A
O5          Cu10   1.947   1_655  S
O5           C14   1.269       .  A
O6          Cu10   1.944       .  S
O6           C13   1.268       .  A
O7          Cu10   2.072       .  S
O7           C12   1.287       .  A
O8          Cu10   2.074   1_655  S
O8           C11   1.287       .  A
Cu9         Cu10   2.368       .  S
C11         C428   1.485       .  S
C12         C418   1.483       .  S
C13         C408   1.470       .  S
C14         C398   1.472       .  S
C15         C368   1.555       .  S
C15         C378   1.552       .  S
C15         C388   1.569       .  S
C15         C431   1.548       .  S
O16         Cu24   1.986   1_565  S
O16          C26   1.273       .  A
O17         Cu24   1.975       .  S
O17          C27   1.273       .  A
O18         Cu24   2.070       .  S
O18          C28   1.285       .  A
O19         Cu24   2.054   1_565  S
O19          C29   1.284       .  A
O20         Cu25   1.926   1_565  S
O20          C29   1.268       .  A
O21         Cu25   1.916       .  S
O21          C28   1.267       .  A
O22         Cu25   2.042       .  S
O22          C27   1.281       .  A
O23         Cu25   2.035   1_565  S
O23          C26   1.282       .  A
Cu24        Cu25   2.371       .  S
C26         C338   1.473       .  S
C27         C358   1.467       .  S
C28         C381   1.478       .  S
C29         C348   1.473       .  S
O30         Cu38   1.983       .  S
O30          C40   1.273       .  A
O31         Cu38   1.973   1_545  S
O31          C41   1.272       .  A
O32         Cu38   2.061   1_545  S
O32          C42   1.285       .  A
O33         Cu38   2.053       .  S
O33          C43   1.283       .  A
O34         Cu39   1.942       .  S
O34          C43   1.270       .  A
O35         Cu39   1.946   1_545  S
O35          C42   1.268       .  A
O36         Cu39   2.050   1_545  S
O36          C41   1.283       .  A
O37         Cu39   2.043       .  S
O37          C40   1.282       .  A
Cu38        Cu39   2.373       .  S
C40         C298   1.471       .  S
C41         C328   1.469       .  S
C42         C318   1.467       .  S
C43         C308   1.479       .  S
C44         C278   1.557       .  S
C44         C288   1.565       .  S
C44         C331   1.556       .  S
C44         C401   1.560       .  S
O45         Cu53   1.938       .  S
O45          C55   1.267       .  A
O46         Cu53   1.960   1_554  S
O46          C56   1.271       .  A
O47         Cu53   2.063   1_554  S
O47          C57   1.286       .  A
O48         Cu53   2.064       .  S
O48          C58   1.285       .  A
O49         Cu54   1.953       .  S
O49          C58   1.270       .  A
O50         Cu54   1.952   1_554  S
O50          C57   1.269       .  A
O51         Cu54   2.055   1_554  S
O51          C56   1.285       .  A
O52         Cu54   2.058       .  S
O52          C55   1.284       .  A
Cu53        Cu54   2.372       .  S
C55         C371   1.461       .  S
C56         C258   1.483       .  S
C57         C281   1.472       .  S
C58         C268   1.477       .  S
C59         C238   1.555       .  S
C59         C251   1.563       .  S
C59         C271   1.556       .  S
C59         C341   1.550       .  S
C60         C218   1.553       .  S
C60         C228   1.563       .  S
C60         C261   1.552       .  S
C60         C311   1.546       .  S
O61         Cu69   2.061       .  S
O61          C71   1.285       .  A
O62         Cu69   2.057   1_455  S
O62          C72   1.285       .  A
O63         Cu69   1.965       .  S
O63          C73   1.271       .  A
O64         Cu69   1.981   1_455  S
O64          C74   1.273       .  A
O65         Cu70   2.044   1_455  S
O65          C74   1.284       .  A
O66         Cu70   2.048       .  S
O66          C73   1.282       .  A
O67         Cu70   1.955   1_455  S
O67          C72   1.271       .  A
O68         Cu70   1.960       .  S
O68          C71   1.270       .  A
Cu69        Cu70   2.370       .  S
C71         C221   1.472       .  S
C72         C208   1.482       .  S
C73         C241   1.465       .  S
C74         C198   1.484       .  S
C75         C178   1.552       .  S
C75         C191   1.565       .  S
C75         C361   1.558       .  S
C75         C411   1.551       .  S
C76         C161   1.556       .  S
C76         C168   1.562       .  S
C76         C211   1.550       .  S
C76         C351   1.545       .  S
C77         C138   1.557       .  S
C77         C148   1.570       .  S
C77         C201   1.552       .  S
C77         C301   1.560       .  S
C78         C118   1.544       .  S
C78         C128   1.568       .  S
C78         C321   1.554       .  S
C78         C421   1.554       .  S
O79         Cu87   1.943   1_556  S
O79          C89   1.267       .  A
O80         Cu87   1.952       .  S
O80          C90   1.270       .  A
O81         Cu87   2.062       .  S
O81          C91   1.285       .  A
O82         Cu87   2.055   1_556  S
O82          C92   1.284       .  A
O83         Cu88   1.951   1_556  S
O83          C92   1.269       .  A
O84         Cu88   1.945       .  S
O84          C91   1.269       .  A
O85         Cu88   2.064       .  S
O85          C90   1.285       .  A
O86         Cu88   2.063   1_556  S
O86          C89   1.286       .  A
Cu87        Cu88   2.370       .  S
C89         C181   1.469       .  S
C90         C141   1.485       .  S
C91         C121   1.482       .  S
C92         C158   1.466       .  S
C93         C231   1.535       .  S
C93          C94   1.529       .  S
C93          C99   1.536   1_565  S
C93          C97   1.533   1_565  S
C94         H101   1.085       .  S
C94          C95   1.367   1_654  D
C95          C96   1.554   1_565  S
C95         C171   1.499       .  S
C96         C100   1.547   1_455  S
C96          C98   1.551   1_556  S
C96         H102   1.109       .  S
C97         H103   1.081       .  S
C97          C98   1.368   1_655  D
C98         C131   1.495       .  S
C99         H104   1.086       .  S
C99         C100   1.373   1_554  D
C100        C391   1.494       .  S
C105        C291   1.542       .  S
C105        C106   1.533       .  S
C105        C111   1.537       .  S
C105        C109   1.534       .  S
C106        H113   1.084       .  S
C106        C107   1.371       .  D
C107        C108   1.556       .  S
C107        C188   1.501       .  S
C108        C112   1.555       .  S
C108        C110   1.549       .  S
C108        H114   1.109       .  S
C109        H115   1.086       .  S
C109        C110   1.372       .  D
C110        C151   1.500       .  S
C111        H116   1.082       .  S
C111        C112   1.370       .  D
C112        C248   1.507       .  S
C117        C118   1.418       .  A
C117        C122   1.405       .  A
C117        H123   1.079       .  S
C118        C119   1.405       .  A
C119        C120   1.385       .  A
C119        H124   1.083       .  S
C120        C121   1.406       .  A
C120        H125   1.083       .  S
C121        C122   1.402       .  A
C122        H126   1.083       .  S
C127        C128   1.418       .  A
C127        C132   1.412       .  A
C127        H133   1.083       .  S
C128        C129   1.415       .  A
C129        C130   1.393       .  A
C129        H134   1.080       .  S
C130        C131   1.402       .  A
C130        H135   1.083   1_455  S
C131        C132   1.405       .  A
C132        H136   1.083       .  S
C137        C138   1.420       .  A
C137        C142   1.409       .  A
C137        H143   1.079       .  S
C138        C139   1.408       .  A
C139        C140   1.385       .  A
C139        H144   1.083       .  S
C140        C141   1.406       .  A
C140        H145   1.083       .  S
C141        C142   1.403       .  A
C142        H146   1.083       .  S
C147        C148   1.417       .  A
C147        C152   1.396       .  A
C147        H153   1.079       .  S
C148        C149   1.417       .  A
C149        C150   1.411       .  A
C149        H154   1.083       .  S
C150        C151   1.406       .  A
C150        H155   1.082       .  S
C151        C152   1.402       .  A
C152        H156   1.083       .  S
C157        C158   1.398       .  A
C157        C162   1.402       .  A
C157        H163   1.083       .  S
C158        C159   1.400       .  A
C159        C160   1.393       .  A
C159        H164   1.084   1_556  S
C160        C161   1.413       .  A
C160        H165   1.079       .  S
C161        C162   1.418       .  A
C162        H166   1.083       .  S
C167        C168   1.420       .  A
C167        C172   1.403       .  A
C167        H173   1.079       .  S
C168        C169   1.408       .  A
C169        C170   1.395       .  A
C169        H174   1.083       .  S
C170        C171   1.410       .  A
C170        H175   1.081       .  S
C171        C172   1.402       .  A
C172        H176   1.081   1_565  S
C177        C178   1.420       .  A
C177        C182   1.400       .  A
C177        H183   1.083       .  S
C178        C179   1.409       .  A
C179        C180   1.395       .  A
C179        H184   1.079       .  S
C180        C181   1.404       .  A
C180        H185   1.084       .  S
C181        C182   1.396       .  A
C182        H186   1.083       .  S
C187        C188   1.404       .  A
C187        C192   1.408       .  A
C187        H193   1.083       .  S
C188        C189   1.406       .  A
C189        C190   1.397       .  A
C189        H194   1.082       .  S
C190        C191   1.413       .  A
C190        H195   1.078       .  S
C191        C192   1.418       .  A
C192        H196   1.083       .  S
C197        C198   1.400       .  A
C197        C202   1.400       .  A
C197        H203   1.083       .  S
C198        C199   1.407       .  A
C199        C200   1.396       .  A
C199        H204   1.083       .  S
C200        C201   1.409       .  A
C200        H205   1.083       .  S
C201        C202   1.418       .  A
C202        H206   1.079       .  S
C207        C208   1.406       .  A
C207        C212   1.387       .  A
C207        H213   1.083       .  S
C208        C209   1.402       .  A
C209        C210   1.405       .  A
C209        H214   1.083       .  S
C210        C211   1.419       .  A
C210        H215   1.078       .  S
C211        C212   1.406       .  A
C212        H216   1.084       .  S
C217        C218   1.412       .  A
C217        C222   1.394       .  A
C217        H223   1.080       .  S
C218        C219   1.417       .  A
C219        C220   1.405       .  A
C219        H224   1.083       .  S
C220        C221   1.400       .  A
C220        H225   1.083       .  S
C221        C222   1.401       .  A
C222        H226   1.084       .  S
C227        C228   1.413       .  A
C227        C232   1.402       .  A
C227        H233   1.083       .  S
C228        C229   1.415       .  A
C229        C230   1.397       .  A
C229        H234   1.080       .  S
C230        C231   1.406       .  A
C230        H235   1.083       .  S
C231        C232   1.410       .  A
C232        H236   1.077       .  S
C237        C238   1.417       .  A
C237        C242   1.403       .  A
C237        H243   1.083       .  S
C238        C239   1.413       .  A
C239        C240   1.393       .  A
C239        H244   1.080       .  S
C240        C241   1.399       .  A
C240        H245   1.084       .  S
C241        C242   1.399       .  A
C242        H246   1.083       .  S
C247        C248   1.409       .  A
C247        C252   1.397       .  A
C247        H253   1.082       .  S
C248        C249   1.406       .  A
C249        C250   1.410       .  A
C249        H254   1.082       .  S
C250        C251   1.418       .  A
C250        H255   1.083       .  S
C251        C252   1.412       .  A
C252        H256   1.079       .  S
C257        C258   1.408       .  A
C257        C262   1.391       .  A
C257        H263   1.083       .  S
C258        C259   1.401       .  A
C259        C260   1.403       .  A
C259        H264   1.083       .  S
C260        C261   1.419       .  A
C260        H265   1.080       .  S
C261        C262   1.407       .  A
C262        H266   1.083       .  S
C267        C268   1.402       .  A
C267        C272   1.389       .  A
C267        H273   1.084       .  S
C268        C269   1.402       .  A
C269        C270   1.407       .  A
C269        H274   1.083       .  S
C270        C271   1.418       .  A
C270        H275   1.083       .  S
C271        C272   1.410       .  A
C272        H276   1.081       .  S
C277        C278   1.419       .  A
C277        C282   1.404       .  A
C277        H283   1.083       .  S
C278        C279   1.412       .  A
C279        C280   1.392       .  A
C279        H284   1.079       .  S
C280        C281   1.402       .  A
C280        H285   1.084       .  S
C281        C282   1.399       .  A
C282        H286   1.083       .  S
C287        C288   1.413       .  A
C287        C292   1.400       .  A
C287        H293   1.083       .  S
C288        C289   1.415       .  A
C289        C290   1.404       .  A
C289        H294   1.078       .  S
C290        C291   1.409       .  A
C290        H295   1.082       .  S
C291        C292   1.410       .  A
C292        H296   1.079       .  S
C297        C298   1.401       .  A
C297        C302   1.398       .  A
C297        H303   1.084       .  S
C298        C299   1.397       .  A
C299        C300   1.400       .  A
C299        H304   1.083       .  S
C300        C301   1.420       .  A
C300        H305   1.083       .  S
C301        C302   1.413       .  A
C302        H306   1.078       .  S
C307        C308   1.404       .  A
C307        C312   1.379       .  A
C307        H313   1.083       .  S
C308        C309   1.403       .  A
C309        C310   1.408       .  A
C309        H314   1.083       .  S
C310        C311   1.419       .  A
C310        H315   1.079       .  S
C311        C312   1.406       .  A
C312        H316   1.083       .  S
C317        C318   1.401       .  A
C317        C322   1.394       .  A
C317        H323   1.084       .  S
C318        C319   1.397       .  A
C319        C320   1.401       .  A
C319        H324   1.083       .  S
C320        C321   1.419       .  A
C320        H325   1.083       .  S
C321        C322   1.412       .  A
C322        H326   1.078       .  S
C327        C328   1.399       .  A
C327        C332   1.404       .  A
C327        H333   1.083       .  S
C328        C329   1.399       .  A
C329        C330   1.395       .  A
C329        H334   1.084       .  S
C330        C331   1.413       .  A
C330        H335   1.079       .  S
C331        C332   1.418       .  A
C332        H336   1.083       .  S
C337        C338   1.405       .  A
C337        C342   1.400       .  A
C337        H343   1.083       .  S
C338        C339   1.396       .  A
C339        C340   1.395       .  A
C339        H344   1.083       .  S
C340        C341   1.418       .  A
C340        H345   1.083       .  S
C341        C342   1.411       .  A
C342        H346   1.080       .  S
C347        C348   1.399       .  A
C347        C352   1.402       .  A
C347        H353   1.083       .  S
C348        C349   1.406       .  A
C349        C350   1.381       .  A
C349        H354   1.083       .  S
C350        C351   1.405       .  A
C350        H355   1.083       .  S
C351        C352   1.421       .  A
C352        H356   1.079       .  S
C357        C358   1.397       .  A
C357        C362   1.392       .  A
C357        H363   1.084       .  S
C358        C359   1.401       .  A
C359        C360   1.405       .  A
C359        H364   1.083       .  S
C360        C361   1.416       .  A
C360        H365   1.083       .  S
C361        C362   1.415       .  A
C362        H366   1.080       .  S
C367        C368   1.419       .  A
C367        C372   1.402       .  A
C367        H373   1.083       .  S
C368        C369   1.414       .  A
C369        C370   1.390       .  A
C369        H374   1.078       .  S
C370        C371   1.398       .  A
C370        H375   1.084       .  S
C371        C372   1.398       .  A
C372        H376   1.083       .  S
C377        C378   1.405       .  A
C377        C382   1.376       .  A
C377        H383   1.083       .  S
C378        C379   1.422       .  A
C379        C380   1.410       .  A
C379        H384   1.079       .  S
C380        C381   1.402       .  A
C380        H385   1.083       .  S
C381        C382   1.405       .  A
C382        H386   1.083       .  S
C387        C388   1.416       .  A
C387        C392   1.408       .  A
C387        H393   1.083       .  S
C388        C389   1.417       .  A
C389        C390   1.396       .  A
C389        H394   1.080       .  S
C390        C391   1.401       .  A
C390        H395   1.083       .  S
C391        C392   1.405       .  A
C392        H396   1.083       .  S
C397        C398   1.399       .  A
C397        C402   1.389       .  A
C397        H403   1.084       .  S
C398        C399   1.400       .  A
C399        C400   1.407       .  A
C399        H404   1.083       .  S
C400        C401   1.419       .  A
C400        H405   1.083       .  S
C401        C402   1.413       .  A
C402        H406   1.078       .  S
C407        C408   1.402       .  A
C407        C412   1.387       .  A
C407        H413   1.084       .  S
C408        C409   1.400       .  A
C409        C410   1.404       .  A
C409        H414   1.083       .  S
C410        C411   1.418       .  A
C410        H415   1.083       .  S
C411        C412   1.409       .  A
C412        H416   1.080       .  S
C417        C418   1.402       .  A
C417        C422   1.407       .  A
C417        H423   1.083       .  S
C418        C419   1.407       .  A
C419        C420   1.383       .  A
C419        H424   1.083       .  S
C420        C421   1.406       .  A
C420        H425   1.083       .  S
C421        C422   1.421       .  A
C422        H426   1.079       .  S
C427        C428   1.402       .  A
C427        C432   1.408       .  A
C427        H433   1.083       .  S
C428        C429   1.408       .  A
C429        C430   1.387       .  A
C429        H434   1.083       .  S
C430        C431   1.405       .  A
C430        H435   1.083       .  S
C431        C432   1.420       .  A
C432        H436   1.079       .  S
