geometry optimzed in LAMMPS
_audit_creation_date              2020-12-01 
_audit_creation_method            'lammps2cif' 
_symmetry_space_group_name_H-M    'P1' 
_symmetry_Int_Tables_number       1 
_symmetry_cell_setting            triclinic 
loop_ 
_symmetry_equiv_pos_as_xyz 
  x,y,z 
_cell_length_a                    28.42212996 
_cell_length_b                    28.59553779977151 
_cell_length_c                    58.29301253749472 
_cell_angle_alpha                 88.83070278802136 
_cell_angle_beta                  89.08952221042601 
_cell_angle_gamma                 91.00704169031309 
loop_ 
_atom_site_label 
_atom_site_type_symbol 
_atom_site_fract_x 
_atom_site_fract_y 
_atom_site_fract_z 
_atom_site_charge 
O1          O  0.77682211  0.33099580  0.06373868    -0.54600
C2          C  0.79239747  0.45890348  0.03306847     0.78100
O3          O  0.78842968  0.46895015  0.10405165    -0.55700
C4          C  0.79524321  0.30806948  0.08001510     0.78000
C5          C  0.90775942  0.42189315  0.08178347     0.80400
Cd6        Cd  0.80781048  0.40873107  0.07606417     1.37500
O7          O  0.81003464  0.41855664  0.03334107    -0.54600
O8          O  0.88930753  0.41380469  0.06267678    -0.53400
C9          C  0.74694040  0.45426078  0.10855172     0.80400
O10         O  0.87986940  0.42482776  0.09878520    -0.55700
O11         O  0.77881339  0.47410674  0.05219532    -0.54200
O12         O  0.81639043  0.33169910  0.09487920    -0.54200
O13         O  0.73354208  0.41772274  0.09838544    -0.53400
O14         O  0.16900933  0.34149514  0.05444313    -0.54600
C15         C  0.16604166  0.47438461  0.02760495     0.78100
O16         O  0.06132819  0.42883148  0.08534346    -0.55700
C17         C  0.15017919  0.31854668  0.07113155     0.78000
C18         C  0.19851162  0.45935704  0.10155880     0.80400
Cd19       Cd  0.14006855  0.41822685  0.06725859     1.37500
O20         O  0.16805537  0.43016315  0.02701970    -0.54600
O21         O  0.21265907  0.42568786  0.08967785    -0.53400
C22         C  0.03925269  0.42267171  0.06690897     0.80400
O23         O  0.15705832  0.47301490  0.09804157    -0.55700
O24         O  0.15398283  0.49185182  0.04646516    -0.54200
O25         O  0.12863341  0.34180569  0.08608317    -0.54200
O26         O  0.06369861  0.41569279  0.04908748    -0.53400
O27         O  0.79837047  0.64633983  0.95110414    -0.54600
C28         C  0.81702257  0.51050725  0.97270496     0.78100
O29         O  0.82590539  0.52712046  0.90132261    -0.55700
C30         C  0.81620918  0.67473018  0.93628006     0.78000
C31         C  0.93876874  0.58245868  0.93473602     0.80400
Cd32       Cd  0.83720805  0.57630018  0.93508644     1.37500
O33         O  0.80365789  0.55250795  0.97346600    -0.54600
O34         O  0.91405585  0.58772646  0.95267350    -0.53400
C35         C  0.78420389  0.53928283  0.89732594     0.80400
O36         O  0.91676712  0.57445768  0.91646196    -0.55700
O37         O  0.83798199  0.49882318  0.95449904    -0.54200
O38         O  0.84285971  0.65749735  0.92117697    -0.54200
O39         O  0.76692170  0.56926503  0.91052058    -0.53400
O40         O  0.20232668  0.65315206  0.94689027    -0.54600
C41         C  0.17897560  0.52076884  0.96607463     0.78100
O42         O  0.09914860  0.57624862  0.90335124    -0.55700
C43         C  0.18834265  0.68210729  0.93186616     0.78000
C44         C  0.24066643  0.54783235  0.89543007     0.80400
Cd45       Cd  0.17145991  0.58327874  0.92720127     1.37500
O46         O  0.18276892  0.56469356  0.96797454    -0.54600
O47         O  0.25037402  0.58187425  0.90813730    -0.53400
C48         C  0.07094181  0.58090001  0.92015896     0.80400
O49         O  0.19892556  0.53175742  0.89679901    -0.55700
O50         O  0.17398728  0.50560932  0.94606280    -0.54200
O51         O  0.16896444  0.66513391  0.91437684    -0.54200
O52         O  0.08930180  0.58677948  0.93949674    -0.53400
O53         O  0.77080477  0.15304717  0.04868262    -0.54600
C54         C  0.80461493  0.04199735  0.01512734     0.78100
O55         O  0.88525258  0.07412474  0.08502265    -0.55700
C56         C  0.78781834  0.17884393  0.06398835     0.78000
C57         C  0.76047812  0.02474900  0.09244596     0.80400
Cd58       Cd  0.81491037  0.08194999  0.06017831     1.37500
O59         O  0.81971880  0.08331961  0.01778546    -0.54600
O60         O  0.74704339  0.06501979  0.08626253    -0.53400
C61         C  0.91499403  0.08026147  0.06886517     0.80400
O62         O  0.79804315  0.01053298  0.08326714    -0.55700
O63         O  0.79119062  0.01979406  0.03312378    -0.54200
O64         O  0.81548100  0.15947981  0.07790169    -0.54200
O65         O  0.89851562  0.08681092  0.04908996    -0.53400
O66         O  0.18413804  0.06582291  0.02340199    -0.54600
C67         C  0.16564765  0.18861503  0.05862697     0.78100
O68         O  0.06820014  0.08070165  0.07720334    -0.55700
C69         C  0.17421276  0.02262610  0.02613726     0.78000
C70         C  0.20366457  0.05499876  0.09843405     0.80400
Cd71       Cd  0.14953669  0.08884095  0.06075373     1.37500
O72         O  0.18226403  0.16268062  0.04322225    -0.54600
O73         O  0.22140980  0.08243998  0.08324173    -0.53400
C74         C  0.04843423  0.08690561  0.05806705     0.80400
O75         O  0.16037960  0.04458268  0.09671394    -0.55700
O76         O  0.14338303  0.16824648  0.07505493    -0.54200
O77         O  0.15516511  0.01021805  0.04506188    -0.54200
O78         O  0.07515634  0.09358371  0.04075712    -0.53400
O79         O  0.80073973  0.82690026  0.93732701    -0.54600
C80         C  0.80412496  0.95260146  0.96697695     0.78100
O81         O  0.89988333  0.92736463  0.90220562    -0.55700
C82         C  0.82252746  0.80611718  0.92151716     0.78000
C83         C  0.76667656  0.94985019  0.89089541     0.80400
Cd84       Cd  0.82703593  0.90701639  0.92437470     1.37500
O85         O  0.79402491  0.90991196  0.96406849    -0.54600
O86         O  0.75260693  0.91471000  0.90278099    -0.53400
C87         C  0.92748980  0.92009319  0.91863634     0.80400
O88         O  0.80803160  0.96451864  0.89444912    -0.55700
O89         O  0.82387799  0.97419011  0.95020287    -0.54200
O90         O  0.84399323  0.83177895  0.90672917    -0.54200
O91         O  0.90868448  0.90726186  0.93763271    -0.53400
O92         O  0.19018211  0.83446397  0.94031351    -0.54600
C93         C  0.18593597  0.96989894  0.96695649     0.78100
O94         O  0.17904525  0.96357738  0.89508620    -0.55700
C95         C  0.17136314  0.81398194  0.92356803     0.78000
C96         C  0.05961077  0.91959444  0.93090586     0.80400
Cd97       Cd  0.16075330  0.91310195  0.92867023     1.37500
O98         O  0.17944649  0.92608283  0.96953050    -0.54600
O99         O  0.08434325  0.91018178  0.94811521    -0.53400
C100        C  0.22190419  0.95218955  0.89347300     0.80400
O101        O  0.08151740  0.92794225  0.91210277    -0.55700
O102        O  0.18380019  0.98635646  0.94674007    -0.54200
O103        O  0.14906707  0.83924634  0.90961174    -0.54200
O104        O  0.23604221  0.92165759  0.90766450    -0.53400
O105        O  0.26455703  0.96225481  0.20585422    -0.54600
C106        C  0.41106542  0.94573532  0.17018589     0.78100
O107        O  0.29110429  0.84296808  0.18589762    -0.55700
C108        C  0.27836135  0.93494959  0.22166391     0.78000
C109        C  0.25004793  0.97371080  0.14517588     0.80400
Cd110      Cd  0.31145566  0.92416151  0.17537098     1.37500
O111        O  0.38796101  0.96090326  0.18713179    -0.54600
O112        O  0.23971068  0.93339198  0.15315268    -0.53400
C113        C  0.30183640  0.82565640  0.16677996     0.80400
O114        O  0.28854787  0.99188776  0.15150223    -0.55700
O115        O  0.38790095  0.92358008  0.15552947    -0.54200
O116        O  0.30868208  0.90519537  0.21617528    -0.54200
O117        O  0.31606731  0.85403349  0.15117495    -0.53400
O118        O  0.38468468  0.55978723  0.18468043    -0.54600
C119        C  0.26340536  0.56709523  0.22043151     0.78100
O120        O  0.29406007  0.66808495  0.19625523    -0.55700
C121        C  0.40572680  0.58248613  0.16856131     0.78000
C122        C  0.24941273  0.54675840  0.14386976     0.80400
Cd123      Cd  0.30587885  0.59422882  0.17691109     1.37500
O124        O  0.30353162  0.58704490  0.21910443    -0.54600
O125        O  0.28387928  0.52680006  0.15323661    -0.53400
C126        C  0.29392371  0.69394347  0.17848642     0.80400
O127        O  0.24183702  0.58848005  0.14946739    -0.55700
O128        O  0.24513054  0.55549022  0.20171167    -0.54200
O129        O  0.38046252  0.60775420  0.15595086    -0.54200
O130        O  0.29827465  0.67386265  0.15943704    -0.53400
O131        O  0.21550376  0.92243257  0.28839200    -0.54600
C132        C  0.06445556  0.95286663  0.32512601     0.78100
O133        O  0.18335588  0.86774000  0.34419939    -0.55700
C134        C  0.20267530  0.95534825  0.27524128     0.78000
C135        C  0.22576875  0.99682978  0.34908919     0.80400
Cd136      Cd  0.16495837  0.93925623  0.32085953     1.37500
O137        O  0.08693694  0.96680662  0.30724564    -0.54600
O138        O  0.18147175  0.99777468  0.35149771    -0.53400
C139        C  0.16958176  0.83911056  0.32936466     0.80400
O140        O  0.24127543  0.97046945  0.33375733    -0.55700
O141        O  0.08863531  0.93587178  0.34117755    -0.54200
O142        O  0.17125399  0.98194474  0.28303269    -0.54200
O143        O  0.15351674  0.85671672  0.31109730    -0.53400
O144        O  0.08193693  0.58201241  0.30527904    -0.54600
C145        C  0.21975744  0.58842543  0.28147684     0.78100
O146        O  0.17465058  0.68541561  0.33673563    -0.55700
C147        C  0.05941547  0.58765075  0.32390779     0.78000
C148        C  0.20813084  0.54633930  0.35247397     0.80400
Cd149      Cd  0.15993899  0.60584020  0.32052056     1.37500
O150        O  0.17821661  0.57134549  0.28276458    -0.54600
O151        O  0.19658497  0.53309703  0.33278638    -0.53400
C152        C  0.16210533  0.70698191  0.31867834     0.80400
O153        O  0.19526268  0.58675392  0.35822627    -0.55700
O154        O  0.23326720  0.61249667  0.29819454    -0.54200
O155        O  0.08359120  0.59816920  0.34111284    -0.54200
O156        O  0.14973363  0.68207250  0.30212741    -0.53400
O157        O  0.63843676  0.60876876  0.22085517    -0.54600
C158        C  0.53807249  0.57255550  0.17840809     0.78100
O159        O  0.63551675  0.67273170  0.15361122    -0.55700
C160        C  0.67896059  0.59203546  0.22324953     0.78000
C161        C  0.69469954  0.54761607  0.14763750     0.80400
Cd162      Cd  0.63657782  0.60060810  0.17872472     1.37500
O163        O  0.56583913  0.55587936  0.19306564    -0.54600
O164        O  0.65837146  0.52934588  0.15726857    -0.53400
C165        C  0.63989635  0.70065906  0.17003028     0.80400
O166        O  0.70355712  0.58990908  0.15209797    -0.55700
O167        O  0.55621987  0.59996299  0.16328482    -0.54200
O168        O  0.69882505  0.57705486  0.20533245    -0.54200
O169        O  0.64358518  0.68229864  0.18978820    -0.53400
O170        O  0.56916318  0.96516150  0.19968906    -0.54600
C171        C  0.71056393  0.95375897  0.21504783     0.78100
O172        O  0.64294053  0.85389279  0.16353238    -0.55700
C173        C  0.54211824  0.95580676  0.18328625     0.78000
C174        C  0.67915697  0.98552565  0.14232257     0.80400
Cd175      Cd  0.64091718  0.93292387  0.18088267     1.37500
O176        O  0.66728962  0.96103751  0.21888528    -0.54600
O177        O  0.65487682  0.00482427  0.15773150    -0.53400
C178        C  0.63871131  0.83183102  0.18251323     0.80400
O179        O  0.68459036  0.94180372  0.14443041    -0.55700
O180        O  0.72138428  0.93948281  0.19534348    -0.54200
O181        O  0.56101297  0.93761285  0.16590063    -0.54200
O182        O  0.63455070  0.85622164  0.20021250    -0.53400
O183        O  0.90635662  0.97532626  0.29579364    -0.54600
C184        C  0.77045701  0.95615155  0.27322579     0.78100
O185        O  0.82599654  0.84987611  0.32495115    -0.55700
C186        C  0.93326795  0.95847582  0.31083162     0.78000
C187        C  0.78860986  0.97830127  0.34706817     0.80400
Cd188      Cd  0.83422319  0.93202029  0.30967983     1.37500
O189        O  0.81440099  0.95429199  0.26938405    -0.54600
O190        O  0.81550836  0.00052671  0.33296857    -0.53400
C191        C  0.83431678  0.83115880  0.30582767     0.80400
O192        O  0.78500639  0.93448294  0.34468572    -0.55700
O193        O  0.75684819  0.94931146  0.29374121    -0.54200
O194        O  0.91417399  0.93115578  0.32573703    -0.54200
O195        O  0.84256018  0.85869112  0.28899475    -0.53400
O196        O  0.81353984  0.56605681  0.27148075    -0.54600
C197        C  0.92865140  0.58303843  0.30853918     0.78100
O198        O  0.81936902  0.66926802  0.33278038    -0.55700
C199        C  0.77268433  0.58222123  0.26943811     0.78000
C200        C  0.78487395  0.53552396  0.34391111     0.80400
Cd201      Cd  0.82804603  0.59813420  0.30976605     1.37500
O202        O  0.90307703  0.57376501  0.29161144    -0.54600
O203        O  0.77333107  0.57784196  0.34173222    -0.53400
C204        C  0.82703189  0.69810595  0.31636712     0.80400
O205        O  0.81626800  0.52162570  0.33019130    -0.55700
O206        O  0.90780041  0.59840741  0.32610931    -0.54200
O207        O  0.75689048  0.60501840  0.28616274    -0.54200
O208        O  0.83539015  0.68089577  0.29691317    -0.53400
O209        O  0.70738126  0.58172950  0.53208575    -0.54600
C210        C  0.70201350  0.70832177  0.56165002     0.78100
O211        O  0.60827025  0.59336298  0.59423336    -0.55700
C212        C  0.68022665  0.54604200  0.53237264     0.78000
C213        C  0.74130620  0.57092207  0.60426047     0.86800
Cd214      Cd  0.67956127  0.60996940  0.56994801     1.37500
O215        O  0.71349025  0.67813284  0.54715487    -0.54600
O216        O  0.74842240  0.56498236  0.58306699    -0.53400
C217        C  0.57930284  0.60560639  0.57908844     0.80400
O218        O  0.70686005  0.59599661  0.60957159    -0.55700
O219        O  0.68222712  0.69286385  0.57988763    -0.54200
O220        O  0.65424729  0.53973111  0.55000671    -0.54200
O221        O  0.59668788  0.62103109  0.56023059    -0.53400
O222        O  0.31982740  0.59317571  0.53177722    -0.54600
C223        C  0.32929243  0.70326244  0.57663668     0.78100
O224        O  0.33058016  0.54703811  0.60406713    -0.55700
C225        C  0.31949475  0.54885910  0.53308056     0.78000
C226        C  0.44617873  0.60488835  0.56878908     0.80400
Cd227      Cd  0.34436400  0.60410438  0.57208331     1.37500
O228        O  0.31383423  0.68182042  0.55938863    -0.54600
O229        O  0.42017160  0.61372997  0.55198641    -0.53400
C230        C  0.28878789  0.55917171  0.60852973     0.80400
O231        O  0.42548173  0.59407113  0.58761773    -0.55700
O232        O  0.34901030  0.67867611  0.59183303    -0.54200
O233        O  0.32719289  0.53068498  0.55253820    -0.54200
O234        O  0.27285954  0.59237919  0.59641176    -0.53400
O235        O  0.65984321  0.46095955  0.47328456    -0.54600
C236        C  0.70113867  0.34022179  0.43294084     0.78100
O237        O  0.59211866  0.45762734  0.41914046    -0.55700
C238        C  0.69498893  0.48847708  0.47394494     0.78000
C239        C  0.70851001  0.48874386  0.39441375     0.80400
Cd240      Cd  0.67113446  0.43614417  0.43348434     1.37500
O241        O  0.71115942  0.36643707  0.44945511    -0.54600
O242        O  0.72720380  0.45097992  0.40104598    -0.53400
C243        C  0.56982275  0.42870324  0.43212694     0.80400
O244        O  0.67254236  0.50148386  0.40552931    -0.55700
O245        O  0.68027273  0.35916273  0.41622879    -0.54200
O246        O  0.72091851  0.49078338  0.45613732    -0.54200
O247        O  0.59416929  0.40311610  0.44499979    -0.53400
O248        O  0.32278145  0.36514546  0.44720126    -0.54600
C249        C  0.32896678  0.50361452  0.47205926     0.78100
O250        O  0.41152344  0.47517343  0.41205073    -0.55700
C251        C  0.32066519  0.34752303  0.42742968     0.78000
C252        C  0.27174412  0.49382487  0.40391181     0.80400
Cd253      Cd  0.33855063  0.44676456  0.43221756     1.37500
O254        O  0.31459631  0.46124633  0.47264308    -0.54600
O255        O  0.26427741  0.48689573  0.42515038    -0.53400
C256        C  0.43877539  0.45139184  0.42444608     0.80400
O257        O  0.30916537  0.47723899  0.39549912    -0.55700
O258        O  0.34787744  0.51856952  0.45349975    -0.54200
O259        O  0.32256879  0.37592555  0.41055450    -0.54200
O260        O  0.41966080  0.42628287  0.44019541    -0.53400
O261        O  0.71056199  0.86056602  0.54962007    -0.54600
C262        C  0.70500439  0.99940747  0.52084011     0.78100
O263        O  0.60075962  0.95176543  0.57555763    -0.55700
C264        C  0.69214557  0.84089238  0.56741448     0.78000
C265        C  0.74037341  0.97780577  0.59422265     0.80400
Cd266      Cd  0.68118377  0.93938853  0.55966930     1.37500
O267        O  0.70821580  0.95531183  0.51943410    -0.54600
O268        O  0.75512991  0.94762990  0.58038646    -0.53400
C269        C  0.58019029  0.93874441  0.55755978     0.80400
O270        O  0.69792480  0.99011110  0.59224756    -0.55700
O271        O  0.69331473  0.01504136  0.54017527    -0.54200
O272        O  0.67079001  0.86684547  0.58126339    -0.54200
O273        O  0.60614388  0.92723958  0.54090185    -0.53400
O274        O  0.35833247  0.95592364  0.52288174    -0.54600
C275        C  0.32100453  0.83469680  0.56334775     0.78100
O276        O  0.41911275  0.93883468  0.58718283    -0.55700
C277        C  0.32642637  0.98625294  0.52249285     0.78000
C278        C  0.29981793  0.98843634  0.59736531     0.80400
Cd279      Cd  0.34697646  0.93342695  0.56364025     1.37500
O280        O  0.30909002  0.86224850  0.54731566    -0.54600
O281        O  0.28340177  0.94866372  0.59201267    -0.53400
C282        C  0.44752165  0.93871389  0.57028647     0.80400
O283        O  0.33782893  0.00174190  0.58755018    -0.55700
O284        O  0.34242279  0.85306562  0.57983413    -0.54200
O285        O  0.30224668  0.99027973  0.54068544    -0.54200
O286        O  0.42952610  0.93611612  0.55065632    -0.53400
O287        O  0.71205018  0.18779394  0.43559062    -0.54600
C288        C  0.70480638  0.04964906  0.45983236     0.78100
O289        O  0.59997598  0.10652005  0.40636962    -0.55700
C290        C  0.69702977  0.21054728  0.41834400     0.78000
C291        C  0.73771062  0.07016916  0.38681003     0.80400
Cd292      Cd  0.68134054  0.11112239  0.42217763     1.37500
O293        O  0.71186147  0.09349637  0.46106696    -0.54600
O294        O  0.75308605  0.10423965  0.39818857    -0.53400
C295        C  0.57977378  0.11170318  0.42567525     0.80400
O296        O  0.69573275  0.05657212  0.39102890    -0.55700
O297        O  0.68955365  0.03474492  0.44106876    -0.54200
O298        O  0.67771653  0.18707561  0.40282574    -0.54200
O299        O  0.60617146  0.11553158  0.44276522    -0.53400
O300        O  0.31726272  0.08371736  0.46441613    -0.54600
C301        C  0.33036565  0.21421526  0.43547453     0.78100
O302        O  0.41674636  0.11923612  0.40018313    -0.55700
C303        C  0.34302991  0.04798590  0.46400114     0.78000
C304        C  0.27896772  0.07388159  0.39584202     0.80400
Cd305      Cd  0.34654252  0.11572452  0.42673580     1.37500
O306        O  0.33338884  0.18413083  0.45153126    -0.54600
O307        O  0.26586151  0.09514698  0.41356996    -0.53400
C308        C  0.44642291  0.11666956  0.41613252     0.80400
O309        O  0.32287873  0.07320893  0.39196971    -0.55700
O310        O  0.33386358  0.19899020  0.41528376    -0.54200
O311        O  0.36854938  0.04323706  0.44631700    -0.54200
O312        O  0.42984838  0.11498877  0.43638925    -0.53400
O313        O  0.11444149  0.44835195  0.70981682    -0.54600
C314        C  0.24539907  0.44766980  0.73092298     0.78100
O315        O  0.18532692  0.34685258  0.67341580    -0.55700
C316        C  0.09077430  0.44520742  0.69170314     0.78000
C317        C  0.24252242  0.47127832  0.65476015     0.80400
Cd318      Cd  0.18987284  0.42412323  0.69177295     1.37500
O319        O  0.20730034  0.46836048  0.72691389    -0.54600
O320        O  0.24993801  0.42936427  0.66072862    -0.53400
C321        C  0.18088861  0.32335772  0.69197326     0.80400
O322        O  0.21033301  0.49180926  0.66569915    -0.55700
O323        O  0.25819472  0.41774619  0.71652821    -0.54200
O324        O  0.11327643  0.43464761  0.67369088    -0.54200
O325        O  0.18065195  0.34623298  0.71027152    -0.53400
O326        O  0.25559589  0.10230589  0.69674407    -0.54600
C327        C  0.07952063  0.07156906  0.68221920     0.78100
O328        O  0.18186394  0.17020003  0.65733400    -0.55700
C329        C  0.24443387  0.08016578  0.71503415     0.78000
C330        C  0.21818698  0.03511177  0.64411218     0.80400
Cd331      Cd  0.17877501  0.09405099  0.67861484     1.37500
O332        O  0.10653544  0.06446358  0.69895832    -0.54600
O333        O  0.18906065  0.01925952  0.65904226    -0.53400
C334        C  0.17621765  0.19466377  0.67499066     0.80400
O335        O  0.22822808  0.07836168  0.64477950    -0.55700
O336        O  0.09859072  0.08771261  0.66387391    -0.54200
O337        O  0.20306777  0.06293573  0.71637625    -0.54200
O338        O  0.17036116  0.17263781  0.69387836    -0.53400
O339        O  0.32988291  0.08847312  0.77482452    -0.54600
C340        C  0.43687064  0.07090296  0.82216969     0.78100
O341        O  0.33603668  0.16372919  0.83560394    -0.55700
C342        C  0.29439871  0.06110164  0.77454690     0.78000
C343        C  0.27735308  0.03884176  0.84968374     0.80400
Cd344      Cd  0.33750883  0.08680280  0.81663917     1.37500
O345        O  0.41599985  0.05629435  0.80459759    -0.54600
O346        O  0.31396436  0.01969376  0.84181269    -0.53400
C347        C  0.32995828  0.18703777  0.81724073     0.80400
O348        O  0.26959483  0.08015242  0.84275891    -0.55700
O349        O  0.41156202  0.08958186  0.83726723    -0.54200
O350        O  0.28148080  0.04238063  0.79348331    -0.54200
O351        O  0.32523924  0.16401335  0.79917541    -0.53400
O352        O  0.44372294  0.44935206  0.81311338    -0.54600
C353        C  0.33325072  0.43177183  0.77898646     0.78100
O354        O  0.35989498  0.34110552  0.84803220    -0.55700
C355        C  0.46557707  0.43155122  0.82980204     0.78000
C356        C  0.30219456  0.46411377  0.85453361     0.80400
Cd357      Cd  0.36549765  0.41495398  0.82477221     1.37500
O358        O  0.36557205  0.40327119  0.78331321    -0.54600
O359        O  0.34178952  0.48224908  0.84879360    -0.53400
C360        C  0.34940692  0.31565773  0.83131831     0.80400
O361        O  0.29279627  0.42424020  0.84672850    -0.55700
O362        O  0.31831364  0.45572433  0.79554013    -0.54200
O363        O  0.44087682  0.40953703  0.84477940    -0.54200
O364        O  0.34635343  0.33606813  0.81199859    -0.53400
O365        O  0.92660571  0.06565533  0.68852502    -0.54600
C366        C  0.79751301  0.06526009  0.71698317     0.78100
O367        O  0.84522563  0.17600710  0.66068729    -0.55700
C368        C  0.94789135  0.07596436  0.66980003     0.78000
C369        C  0.79165982  0.05528364  0.64084076     0.80400
Cd370      Cd  0.84906754  0.09514572  0.67614662     1.37500
O371        O  0.83667171  0.04724553  0.71206199    -0.54600
O372        O  0.82549499  0.03287462  0.64936388    -0.53400
C373        C  0.85701744  0.19536444  0.67910319     0.80400
O374        O  0.78504004  0.09578799  0.64833082    -0.55700
O375        O  0.78230824  0.09513675  0.70279607    -0.54200
O376        O  0.92304330  0.09194924  0.65374058    -0.54200
O377        O  0.86529624  0.16856421  0.69598081    -0.53400
O378        O  0.83956666  0.45491353  0.70951893    -0.54600
C379        C  0.96256428  0.44386296  0.67241792     0.78100
O380        O  0.84211415  0.35453167  0.65028441    -0.55700
C381        C  0.79795020  0.43816150  0.70911561     0.78000
C382        C  0.82321593  0.48683674  0.63541417     0.80400
Cd383      Cd  0.86175810  0.42701541  0.67072246     1.37500
O384        O  0.93709424  0.44655768  0.69032913    -0.54600
O385        O  0.82569570  0.50004458  0.65597950    -0.53400
C386        C  0.85438907  0.32696904  0.66620925     0.80400
O387        O  0.84034586  0.44746274  0.63109443    -0.55700
O388        O  0.94137187  0.43621566  0.65398481    -0.54200
O389        O  0.78580760  0.41844717  0.69086034    -0.54200
O390        O  0.87020834  0.34553020  0.68406832    -0.53400
O391        O  0.70685452  0.42768128  0.76939478    -0.54600
C392        C  0.59651504  0.44073688  0.81381466     0.78100
O393        O  0.68930279  0.33535318  0.82839158    -0.55700
C394        C  0.74804560  0.44507003  0.77039049     0.78000
C395        C  0.74455074  0.45992722  0.84863904     0.80400
Cd396      Cd  0.69517315  0.41663821  0.81138275     1.37500
O397        O  0.62411602  0.46001523  0.79907895    -0.54600
O398        O  0.70966479  0.47936473  0.83944124    -0.53400
C399        C  0.69718030  0.31532133  0.80958642     0.80400
O400        O  0.75607034  0.42069540  0.84086269    -0.55700
O401        O  0.61457917  0.41145679  0.82745703    -0.54200
O402        O  0.76345634  0.45249619  0.79024069    -0.54200
O403        O  0.70525819  0.34169018  0.79233669    -0.53400
O404        O  0.59791074  0.04022698  0.79751163    -0.54600
C405        C  0.70779594  0.07285218  0.76602430     0.78100
O406        O  0.66501321  0.15470721  0.83566648    -0.55700
C407        C  0.56906233  0.05975376  0.81080763     0.78000
C408        C  0.72282786  0.03398868  0.84430138     0.80400
Cd409      Cd  0.66812721  0.08444679  0.81114739     1.37500
O410        O  0.67223783  0.09763213  0.76976956    -0.54600
O411        O  0.68179300  0.02002553  0.83930216    -0.53400
C412        C  0.67782461  0.18342080  0.81992398     0.80400
O413        O  0.73835273  0.07027574  0.83382551    -0.55700
O414        O  0.72406162  0.05055464  0.78305980    -0.54200
O415        O  0.58630801  0.08845731  0.82474172    -0.54200
O416        O  0.68599688  0.16643957  0.80045280    -0.53400
C417        C  0.69624481  0.26412276  0.80712519    -0.13200
C418        C  0.68234711  0.23409957  0.82401721    -0.28400
H419        H  0.70527927  0.25088382  0.79030002     0.15800
H420        H  0.67284694  0.24697857  0.84084406     0.16400
C421        C  0.76506748  0.43921067  0.72896804    -0.13200
C422        C  0.77797001  0.45398800  0.74971742    -0.28400
H423        H  0.73037990  0.42343192  0.72688934     0.15800
H424        H  0.81302810  0.46872908  0.75200814     0.16400
C425        C  0.77181184  0.05389507  0.73863530    -0.13200
C426        C  0.72982185  0.07293226  0.74302753    -0.28400
H427        H  0.78916240  0.03318824  0.75173511     0.15800
H428        H  0.71296780  0.09374216  0.72979092     0.16400
C429        C  0.85028730  0.27591644  0.66389133    -0.13200
C430        C  0.86111420  0.24644504  0.68114499    -0.28400
H431        H  0.83783076  0.26237837  0.64776162     0.15800
H432        H  0.87303583  0.26008293  0.69735461     0.16400
C433        C  0.54556403  0.45033976  0.81438370    -0.13200
C434        C  0.51734575  0.43309813  0.83137586    -0.28400
H435        H  0.53062568  0.46877234  0.79981024     0.15800
H436        H  0.53268010  0.41498946  0.84595230     0.16400
C437        C  0.48823140  0.06926899  0.82497026    -0.13200
C438        C  0.51777306  0.05126370  0.80941701    -0.28400
H439        H  0.50247036  0.08691532  0.83974600     0.15800
H440        H  0.50409806  0.03292934  0.79472887     0.16400
C441        C  0.34226021  0.26469108  0.83410435    -0.13200
C442        C  0.33012227  0.23842380  0.81623795    -0.28400
H443        H  0.34931979  0.24837790  0.85065661     0.15800
H444        H  0.32346714  0.25500873  0.79969355     0.16400
C445        C  0.02812001  0.06349532  0.68440948    -0.13200
C446        C  0.99936313  0.07246484  0.66681510    -0.28400
H447        H  0.01347248  0.05395359  0.70122593     0.15800
H448        H  0.01427614  0.08247709  0.65010885     0.16400
C449        C  0.27769609  0.07712405  0.73404879    -0.13200
C450        C  0.26709089  0.05374154  0.75366801    -0.28400
H451        H  0.30997867  0.09799260  0.73255428     0.15800
H452        H  0.23483245  0.03285610  0.75517805     0.16400
C453        C  0.03926109  0.45146511  0.69184882    -0.13200
C454        C  0.01439996  0.44713457  0.67256953    -0.28400
H455        H  0.02128745  0.45628793  0.70819679     0.15800
H456        H  0.03272881  0.44216822  0.65631970     0.16400
C457        C  0.27222544  0.45632834  0.75190304    -0.13200
C458        C  0.31248172  0.43396118  0.75604302    -0.28400
H459        H  0.25649883  0.47794224  0.76497826     0.15800
H460        H  0.32770193  0.41194588  0.74298453     0.16400
C461        C  0.17657822  0.27195795  0.69266375    -0.13200
C462        C  0.17745857  0.24622608  0.67363157    -0.28400
H463        H  0.17364161  0.25478676  0.70944452     0.15800
H464        H  0.18094649  0.26319360  0.65682876     0.16400
C465        C  0.52826422  0.11326589  0.42884468    -0.13200
C466        C  0.49771923  0.11524839  0.41148419    -0.28400
H467        H  0.51508420  0.11362439  0.44645551     0.15800
H468        H  0.51042737  0.11566614  0.39379704     0.16400
C469        C  0.27647645  0.01872975  0.61399692    -0.13200
C470        C  0.23952356  0.00430387  0.62703760    -0.28400
H471        H  0.29100500  0.05382358  0.61589524     0.15800
H472        H  0.22580456  0.96876066  0.62578301     0.16400
C473        C  0.31869304  0.01687248  0.50230180    -0.13200
C474        C  0.34519525  0.01381490  0.48317544    -0.28400
H475        H  0.29265003  0.04408201  0.50368636     0.15800
H476        H  0.37114070  0.98648153  0.48187325     0.16400
C477        C  0.77156805  0.99715424  0.61175343    -0.13200
C478        C  0.76068616  0.03570268  0.62328216    -0.28400
H479        H  0.80476072  0.97998549  0.61480930     0.15800
H480        H  0.72849330  0.05406943  0.61945699     0.16400
C481        C  0.71200800  0.03177638  0.50101994    -0.13200
C482        C  0.71121637  0.01695260  0.47937003    -0.28400
H483        H  0.71169832  0.06906759  0.50426886     0.15800
H484        H  0.70878407  0.97969882  0.47612348     0.16400
C485        C  0.52867710  0.93677777  0.55547136    -0.13200
C486        C  0.49891985  0.94152479  0.57334722    -0.28400
H487        H  0.51484639  0.93000621  0.53856018     0.15800
H488        H  0.51240881  0.94692986  0.59044159     0.16400
C489        C  0.31855913  0.29657629  0.42354202    -0.13200
C490        C  0.32444008  0.26444552  0.44034584    -0.28400
H491        H  0.31610706  0.28536991  0.40588538     0.15800
H492        H  0.32725059  0.27542019  0.45802041     0.16400
C493        C  0.71096324  0.28963682  0.43375472    -0.13200
C494        C  0.69905128  0.26200693  0.41634339    -0.28400
H495        H  0.72395284  0.27438551  0.44961178     0.15800
H496        H  0.68550425  0.27760923  0.40067709     0.16400
C497        C  0.51818176  0.42502881  0.43309390    -0.13200
C498        C  0.49025150  0.45333765  0.42096859    -0.28400
H499        H  0.50268139  0.39925681  0.44505909     0.15800
H500        H  0.50535185  0.47897766  0.40883344     0.16400
C501        C  0.25978008  0.53624397  0.62695402    -0.13200
C502        C  0.27085043  0.49448491  0.63618624    -0.28400
H503        H  0.22806454  0.55356137  0.63263475     0.15800
H504        H  0.30143062  0.47629508  0.62973512     0.16400
C505        C  0.32709476  0.75450489  0.57900193    -0.13200
C506        C  0.31249032  0.78357057  0.56225859    -0.28400
H507        H  0.34214422  0.76901433  0.59439859     0.15800
H508        H  0.29778499  0.76947410  0.54669888     0.16400
C509        C  0.32517832  0.53478878  0.49181509    -0.13200
C510        C  0.31316176  0.51913164  0.51296389    -0.28400
H511        H  0.33641890  0.57107125  0.48919303     0.15800
H512        H  0.30455181  0.48230197  0.51590910     0.16400
C513        C  0.77034995  0.54889688  0.62210318    -0.13200
C514        C  0.80029112  0.51451040  0.61726239    -0.28400
H515        H  0.76408254  0.55843885  0.63981549     0.15800
H516        H  0.80472349  0.50339173  0.59966519     0.16400
C517        C  0.70953184  0.75899354  0.55719643    -0.13200
C518        C  0.69335000  0.79019216  0.57216589    -0.28400
H519        H  0.72533047  0.77070846  0.54093523     0.15800
H520        H  0.67691969  0.77788267  0.58819685     0.16400
C521        C  0.67704163  0.51360832  0.51310862    -0.13200
C522        C  0.70421632  0.51763895  0.49407140    -0.28400
H523        H  0.64974058  0.48654803  0.51431233     0.15800
H524        H  0.73197075  0.54420505  0.49279664     0.16400
C525        C  0.52792019  0.60143984  0.58314314    -0.13200
C526        C  0.49776937  0.60803105  0.56591996    -0.28400
H527        H  0.51483352  0.59206247  0.60026270     0.15800
H528        H  0.51136389  0.61684308  0.54881327     0.16400
C529        C  0.72771854  0.51769781  0.37513919    -0.13200
C530        C  0.76370212  0.50410887  0.36178259    -0.28400
H531        H  0.71231182  0.55177536  0.37221017     0.15800
H532        H  0.77856677  0.46967363  0.36430004     0.16400
C533        C  0.76105554  0.00191221  0.36488958    -0.13200
C534        C  0.76753938  0.04729407  0.36964065    -0.28400
H535        H  0.73406235  0.98143487  0.37415303     0.15800
H536        H  0.79614519  0.06741784  0.36145396     0.16400
C537        C  0.83469519  0.78006831  0.30274077    -0.13200
C538        C  0.82616359  0.74907721  0.31998165    -0.28400
H539        H  0.84237868  0.76765562  0.28560982     0.15800
H540        H  0.81846665  0.76127874  0.33714422     0.16400
C541        C  0.74694454  0.95891884  0.23267676    -0.13200
C542        C  0.73579696  0.96346116  0.25495754    -0.28400
H543        H  0.78331405  0.95328546  0.22756011     0.15800
H544        H  0.69916499  0.96706304  0.26015299     0.16400
C545        C  0.70230394  0.59207288  0.24565865    -0.13200
C546        C  0.74599389  0.57579870  0.24823063    -0.28400
H547        H  0.68437197  0.60844656  0.25992214     0.15800
H548        H  0.76375905  0.55926573  0.23396773     0.16400
C549        C  0.64020328  0.75197578  0.16650388    -0.13200
C550        C  0.63900796  0.78044096  0.18456901    -0.28400
H551        H  0.64037994  0.76637681  0.14910613     0.15800
H552        H  0.63785124  0.76549895  0.20187300     0.16400
C553        C  0.23705344  0.51638410  0.36719663    -0.13200
C554        C  0.23900429  0.52123892  0.38995091    -0.28400
H555        H  0.25761656  0.48957688  0.35896523     0.15800
H556        H  0.21628027  0.54584929  0.39849544     0.16400
C557        C  0.00752858  0.58474629  0.32564748    -0.13200
C558        C  0.98026029  0.57757741  0.30737265    -0.28400
H559        H  0.99131267  0.59226752  0.34214207     0.15800
H560        H  0.99628518  0.56985362  0.29086541     0.16400
C561        C  0.25863623  0.02394711  0.36330091    -0.13200
C562        C  0.24462564  0.05039578  0.38085894    -0.28400
H563        H  0.29599819  0.02059666  0.35958678     0.15800
H564        H  0.20737041  0.05335252  0.38490797     0.16400
C565        C  0.01255266  0.95331824  0.32717745    -0.13200
C566        C  0.98461246  0.96839692  0.31025846    -0.28400
H567        H  0.99677567  0.93691495  0.34249893     0.15800
H568        H  0.99996942  0.98535780  0.29498688     0.16400
C569        C  0.17222459  0.78788439  0.33310615    -0.13200
C570        C  0.16109232  0.75839251  0.31630032    -0.28400
H571        H  0.18357828  0.77438865  0.34963000     0.15800
H572        H  0.15013359  0.77247961  0.29981001     0.16400
C573        C  0.48687808  0.56237024  0.17971737    -0.13200
C574        C  0.45721991  0.58232840  0.16487171    -0.28400
H575        H  0.47309627  0.54171661  0.19424918     0.15800
H576        H  0.47133956  0.60345453  0.15056751     0.16400
C577        C  0.23723384  0.56078055  0.24237177    -0.13200
C578        C  0.25091845  0.58301644  0.26126785    -0.28400
H579        H  0.20321680  0.54284906  0.24219136     0.15800
H580        H  0.28450195  0.60181183  0.26119004     0.16400
C581        C  0.46258942  0.95072328  0.16762142    -0.13200
C582        C  0.49081761  0.96345138  0.18478348    -0.28400
H583        H  0.47807454  0.93809014  0.15179022     0.15800
H584        H  0.47577916  0.97527072  0.20086785     0.16400
C585        C  0.22317592  0.96159695  0.25192903    -0.13200
C586        C  0.25970116  0.93556489  0.24530667    -0.28400
H587        H  0.20746383  0.98627972  0.24003560     0.15800
H588        H  0.27506186  0.91112092  0.25744982     0.16400
C589        C  0.29932544  0.77489973  0.16303201    -0.13200
C590        C  0.28995813  0.74483690  0.18053989    -0.28400
H591        H  0.30833079  0.76201919  0.14614991     0.15800
H592        H  0.28245244  0.75802304  0.19753706     0.16400
C593        C  0.25439569  0.97390601  0.87628646    -0.13200
C594        C  0.24454197  0.01480816  0.86594596    -0.28400
H595        H  0.28800998  0.95750024  0.87310431     0.15800
H596        H  0.21178603  0.03209413  0.87001932     0.16400
C597        C  0.73642073  0.97253391  0.87380292    -0.13200
C598        C  0.75184489  0.01000195  0.86141337    -0.28400
H599        H  0.70113819  0.95842463  0.87143177     0.15800
H600        H  0.78708090  0.02409481  0.86399521     0.16400
C601        C  0.97898569  0.92557107  0.91556822    -0.13200
C602        C  0.00793341  0.91921450  0.93327033    -0.28400
H603        H  0.99325146  0.93353811  0.89850842     0.15800
H604        H  0.99322092  0.91127605  0.95025399     0.16400
C605        C  0.21874756  0.99732075  0.12899437    -0.13200
C606        C  0.23277420  0.03537567  0.11674936    -0.28400
H607        H  0.18457603  0.98114054  0.12595579     0.15800
H608        H  0.26783432  0.05022220  0.11895344     0.16400
C609        C  0.19274362  0.00147154  0.98634565    -0.13200
C610        C  0.18150621  0.98822379  0.00796911    -0.28400
H611        H  0.20076220  0.03807013  0.98233836     0.15800
H612        H  0.17157995  0.95199061  0.01183056     0.16400
C613        C  0.73471232  0.99571804  0.10978842    -0.13200
C614        C  0.70079673  0.01319647  0.12323519    -0.28400
H615        H  0.74607007  0.95997642  0.11255603     0.15800
H616        H  0.69086992  0.04954416  0.12117231     0.16400
C617        C  0.79476653  0.97530705  0.98909908    -0.13200
C618        C  0.80525049  0.02075437  0.99224381    -0.28400
H619        H  0.78172137  0.95357357  0.00341337     0.15800
H620        H  0.81848271  0.04228191  0.97788969     0.16400
C621        C  0.96616882  0.07988275  0.07285932    -0.13200
C622        C  0.99702416  0.08666413  0.05537316    -0.28400
H623        H  0.97853320  0.07410905  0.09020983     0.15800
H624        H  0.98417079  0.09243955  0.03810322     0.16400
C625        C  0.26769561  0.48719461  0.86941812    -0.13200
C626        C  0.27642131  0.52752494  0.88008547    -0.28400
H627        H  0.23381753  0.46948434  0.87200271     0.15800
H628        H  0.31059002  0.54491796  0.87815769     0.16400
C629        C  0.19290184  0.73311858  0.93501998    -0.13200
C630        C  0.17362220  0.76321511  0.92007105    -0.28400
H631        H  0.20955778  0.74586145  0.95038799     0.15800
H632        H  0.15638028  0.74992382  0.90496188     0.16400
C633        C  0.77132950  0.48140159  0.86730148    -0.13200
C634        C  0.75680891  0.51940214  0.87841366    -0.28400
H635        H  0.80372260  0.46468361  0.87233769     0.15800
H636        H  0.72358630  0.53529700  0.87406395     0.16400
C637        C  0.80721912  0.72548538  0.93681105    -0.13200
C638        C  0.82491782  0.75474059  0.92036423    -0.28400
H639        H  0.78751833  0.73910980  0.95125928     0.15800
H640        H  0.84462079  0.74069712  0.90601188     0.16400
C641        C  0.99049569  0.58532535  0.93575122    -0.13200
C642        C  0.01928339  0.57924007  0.91755505    -0.28400
H643        H  0.00541172  0.59216406  0.95243707     0.15800
H644        H  0.00486618  0.57247190  0.90076709     0.16400
C645        C  0.21881187  0.52315054  0.12739300    -0.13200
C646        C  0.22920384  0.48161301  0.11847023    -0.28400
H647        H  0.18722640  0.54105647  0.12210763     0.15800
H648        H  0.26167824  0.46444702  0.12299311     0.16400
C649        C  0.17072536  0.24008856  0.05714449    -0.13200
C650        C  0.15148044  0.26716817  0.07322615    -0.28400
H651        H  0.18832552  0.25589905  0.04215227     0.15800
H652        H  0.13363953  0.25101846  0.08807809     0.16400
C653        C  0.17838687  0.48865184  0.98611970    -0.13200
C654        C  0.17551935  0.50497619  0.00746347    -0.28400
H655        H  0.17616489  0.45124407  0.98324365     0.15800
H656        H  0.17596442  0.54249384  0.01014708     0.16400
C657        C  0.71543593  0.47857609  0.12465669    -0.13200
C658        C  0.72589517  0.52171016  0.13206912    -0.28400
H659        H  0.68248415  0.46141871  0.12988757     0.15800
H660        H  0.75819449  0.53928221  0.12616290     0.16400
C661        C  0.79502537  0.25642163  0.08138450    -0.13200
C662        C  0.77770309  0.22937992  0.06479213    -0.28400
H663        H  0.81371131  0.24035126  0.09554686     0.15800
H664        H  0.75895281  0.24514511  0.05058183     0.16400
C665        C  0.78984622  0.48848708  0.01203532    -0.13200
C666        C  0.81070150  0.47683999  0.99216620    -0.28400
H667        H  0.77434718  0.52276611  0.01359258     0.15800
H668        H  0.82674540  0.44279837  0.99065722     0.16400
C669        C  0.95918656  0.42675425  0.08406566    -0.13200
C670        C  0.98769033  0.42243826  0.06567594    -0.28400
H671        H  0.97371962  0.43229737  0.10093950     0.15800
H672        H  0.97269004  0.41665105  0.04891127     0.16400
loop_ 
_geom_bond_atom_site_label_1 
_geom_bond_atom_site_label_2 
_geom_bond_distance 
_geom_bond_site_symmetry_2 
_ccdc_geom_bond_type 
O1            C4   1.268       .  A
O1           Cd6   2.500       .  S
C2           O11   1.262       .  A
C2            O7   1.266       .  A
C2          C665   1.479       .  S
O3            C9   1.267       .  A
O3           Cd6   2.460       .  S
C4           O12   1.263       .  A
C4          C661   1.477       .  S
C5           O10   1.264       .  A
C5            O8   1.262       .  A
C5          C669   1.474       .  S
Cd6          O13   2.482       .  S
Cd6          O12   2.458       .  S
Cd6          O11   2.469       .  S
Cd6           O7   2.500       .  S
Cd6          O10   2.498       .  S
Cd6           O8   2.433       .  S
C9           O13   1.267       .  A
C9          C657   1.479       .  S
O14          C17   1.268       .  A
O14         Cd19   2.482       .  S
C15          O24   1.262       .  A
C15          O20   1.268       .  A
C15         C654   1.468       .  S
O16          C22   1.267       .  A
O16         Cd19   2.485       .  S
C17          O25   1.264       .  A
C17         C650   1.473       .  S
C18          O23   1.266       .  A
C18          O21   1.265       .  A
C18         C646   1.474       .  S
Cd19         O26   2.431       .  S
Cd19         O25   2.440       .  S
Cd19         O24   2.431       .  S
Cd19         O20   2.480       .  S
Cd19         O23   2.454       .  S
Cd19         O21   2.468       .  S
C22          O26   1.262       .  A
C22         C670   1.468   1_455  S
O27          C30   1.267       .  A
O27         Cd32   2.495       .  S
C28          O37   1.263       .  A
C28          O33   1.267       .  A
C28         C666   1.480       .  S
O29          C35   1.265       .  A
O29         Cd32   2.464       .  S
C30          O38   1.265       .  A
C30         C637   1.479       .  S
C31          O36   1.267       .  A
C31          O34   1.263       .  A
C31         C641   1.473       .  S
Cd32         O39   2.484       .  S
Cd32         O38   2.445       .  S
Cd32         O37   2.468       .  S
Cd32         O33   2.495       .  S
Cd32         O36   2.495       .  S
Cd32         O34   2.447       .  S
C35          O39   1.264       .  A
C35         C634   1.477       .  S
O40          C43   1.266       .  A
O40         Cd45   2.479       .  S
C41          O50   1.262       .  A
C41          O46   1.266       .  A
C41         C653   1.471       .  S
O42          C48   1.267       .  A
O42         Cd45   2.507       .  S
C43          O51   1.268       .  A
C43         C629   1.478       .  S
C44          O49   1.265       .  A
C44          O47   1.264       .  A
C44         C626   1.478       .  S
Cd45         O52   2.436       .  S
Cd45         O51   2.445       .  S
Cd45         O50   2.461       .  S
Cd45         O46   2.452       .  S
Cd45         O49   2.454       .  S
Cd45         O47   2.489       .  S
C48          O52   1.263       .  A
C48         C642   1.478       .  S
O53          C56   1.266       .  A
O53         Cd58   2.493       .  S
C54          O63   1.265       .  A
C54          O59   1.263       .  A
C54         C618   1.477   1_554  S
O55          C61   1.263       .  A
O55         Cd58   2.498       .  S
C56          O64   1.265       .  A
C56         C662   1.480       .  S
C57          O62   1.264       .  A
C57          O60   1.267       .  A
C57         C613   1.473   1_545  S
Cd58         O65   2.453       .  S
Cd58         O64   2.465       .  S
Cd58         O63   2.491       .  S
Cd58         O59   2.472       .  S
Cd58         O62   2.459       .  S
Cd58         O60   2.472       .  S
C61          O65   1.263       .  A
C61         C621   1.477       .  S
O66          C69   1.269       .  A
O66         Cd71   2.481       .  S
C67          O76   1.266       .  A
C67          O72   1.267       .  A
C67         C649   1.477       .  S
O68          C74   1.268       .  A
O68         Cd71   2.494       .  S
C69          O77   1.263       .  A
C69         C610   1.475   1_545  S
C70          O75   1.267       .  A
C70          O73   1.264       .  A
C70         C606   1.469       .  S
Cd71         O78   2.435       .  S
Cd71         O77   2.451       .  S
Cd71         O76   2.443       .  S
Cd71         O72   2.486       .  S
Cd71         O75   2.453       .  S
Cd71         O73   2.452       .  S
C74          O78   1.263       .  A
C74         C622   1.472   1_455  S
O79          C82   1.266       .  A
O79         Cd84   2.496       .  S
C80          O89   1.264       .  A
C80          O85   1.265       .  A
C80         C617   1.478       .  S
O81          C87   1.264       .  A
O81         Cd84   2.477       .  S
C82          O90   1.263       .  A
C82         C638   1.475       .  S
C83          O88   1.263       .  A
C83          O86   1.264       .  A
C83         C597   1.474       .  S
Cd84         O91   2.457       .  S
Cd84         O90   2.456       .  S
Cd84         O89   2.467       .  S
Cd84         O85   2.487       .  S
Cd84         O88   2.446       .  S
Cd84         O86   2.490       .  S
C87          O91   1.267       .  A
C87         C601   1.477       .  S
O92          C95   1.269       .  A
O92         Cd97   2.498       .  S
C93         O102   1.263       .  A
C93          O98   1.269       .  A
C93         C609   1.474   1_565  S
O94         C100   1.269       .  A
O94         Cd97   2.452       .  S
C95         O103   1.262       .  A
C95         C630   1.472       .  S
C96         O101   1.268       .  A
C96          O99   1.261       .  A
C96         C602   1.473       .  S
Cd97        O104   2.454       .  S
Cd97        O103   2.426       .  S
Cd97        O102   2.448       .  S
Cd97         O98   2.482       .  S
Cd97        O101   2.504       .  S
Cd97         O99   2.433       .  S
C100        O104   1.266       .  A
C100        C593   1.472       .  S
O105        C108   1.267       .  A
O105       Cd110   2.485       .  S
C106        O115   1.261       .  A
C106        O111   1.266       .  A
C106        C581   1.474       .  S
O107        C113   1.264       .  A
O107       Cd110   2.446       .  S
C108        O116   1.264       .  A
C108        C586   1.469       .  S
C109        O114   1.267       .  A
C109        O112   1.262       .  A
C109        C605   1.469       .  S
Cd110       O117   2.479       .  S
Cd110       O116   2.429       .  S
Cd110       O115   2.446       .  S
Cd110       O111   2.510       .  S
Cd110       O114   2.464       .  S
Cd110       O112   2.448       .  S
C113        O117   1.263       .  A
C113        C589   1.473       .  S
O118        C121   1.267       .  A
O118       Cd123   2.507       .  S
C119        O128   1.264       .  A
C119        O124   1.267       .  A
C119        C577   1.476       .  S
O120        C126   1.260       .  A
O120       Cd123   2.440       .  S
C121        O129   1.262       .  A
C121        C574   1.476       .  S
C122        O127   1.264       .  A
C122        O125   1.268       .  A
C122        C645   1.472       .  S
Cd123       O130   2.490       .  S
Cd123       O129   2.451       .  S
Cd123       O128   2.467       .  S
Cd123       O124   2.464       .  S
Cd123       O127   2.448       .  S
Cd123       O125   2.471       .  S
C126        O130   1.266       .  A
C126        C590   1.469       .  S
O131        C134   1.264       .  A
O131       Cd136   2.419       .  S
C132        O141   1.264       .  A
C132        O137   1.267       .  A
C132        C565   1.478       .  S
O133        C139   1.265       .  A
O133       Cd136   2.501       .  S
C134        O142   1.268       .  A
C134        C585   1.476       .  S
C135        O140   1.260       .  A
C135        O138   1.265       .  A
C135        C561   1.478   1_565  S
Cd136       O143   2.456       .  S
Cd136       O142   2.501       .  S
Cd136       O141   2.454       .  S
Cd136       O137   2.502       .  S
Cd136       O140   2.465       .  S
Cd136       O138   2.516       .  S
C139        O143   1.264       .  A
C139        C569   1.480       .  S
O144        C147   1.266       .  A
O144       Cd149   2.491       .  S
C145        O154   1.265       .  A
C145        O150   1.270       .  A
C145        C578   1.475       .  S
O146        C152   1.268       .  A
O146       Cd149   2.513       .  S
C147        O155   1.263       .  A
C147        C557   1.477       .  S
C148        O153   1.268       .  A
C148        O151   1.262       .  A
C148        C553   1.471       .  S
Cd149       O156   2.434       .  S
Cd149       O155   2.467       .  S
Cd149       O154   2.442       .  S
Cd149       O150   2.481       .  S
Cd149       O153   2.485       .  S
Cd149       O151   2.442       .  S
C152        O156   1.262       .  A
C152        C570   1.475       .  S
O157        C160   1.264       .  A
O157       Cd162   2.473       .  S
C158        O167   1.265       .  A
C158        O163   1.264       .  A
C158        C573   1.479       .  S
O159        C165   1.265       .  A
O159       Cd162   2.506       .  S
C160        O168   1.265       .  A
C160        C545   1.475       .  S
C161        O166   1.264       .  A
C161        O164   1.267       .  A
C161        C658   1.478       .  S
Cd162       O169   2.442       .  S
Cd162       O168   2.465       .  S
Cd162       O167   2.468       .  S
Cd162       O163   2.488       .  S
Cd162       O166   2.464       .  S
Cd162       O164   2.495       .  S
C165        O169   1.263       .  A
C165        C549   1.477       .  S
O170        C173   1.266       .  A
O170       Cd175   2.499       .  S
C171        O180   1.262       .  A
C171        O176   1.268       .  A
C171        C541   1.477       .  S
O172        C178   1.265       .  A
O172       Cd175   2.496       .  S
C173        O181   1.265       .  A
C173        C582   1.480       .  S
C174        O179   1.266       .  A
C174        O177   1.266   1_565  A
C174        C614   1.472   1_565  S
Cd175       O182   2.448       .  S
Cd175       O181   2.451       .  S
Cd175       O180   2.455       .  S
Cd175       O176   2.494       .  S
Cd175       O179   2.450       .  S
Cd175       O177   2.459   1_565  S
C178        O182   1.262       .  A
C178        C550   1.472       .  S
O183        C186   1.266       .  A
O183       Cd188   2.492       .  S
C184        O193   1.261       .  A
C184        O189   1.268       .  A
C184        C542   1.476       .  S
O185        C191   1.267       .  A
O185       Cd188   2.501       .  S
C186        O194   1.266       .  A
C186        C566   1.481       .  S
C187        O192   1.266       .  A
C187        O190   1.267   1_565  A
C187        C533   1.473   1_565  S
Cd188       O195   2.453       .  S
Cd188       O194   2.472       .  S
Cd188       O193   2.455       .  S
Cd188       O189   2.497       .  S
Cd188       O192   2.459       .  S
Cd188       O190   2.467   1_565  S
C191        O195   1.262       .  A
C191        C537   1.476       .  S
O196        C199   1.264       .  A
O196       Cd201   2.468       .  S
C197        O206   1.266       .  A
C197        O202   1.265       .  A
C197        C558   1.478       .  S
O198        C204   1.264       .  A
O198       Cd201   2.473       .  S
C199        O207   1.265       .  A
C199        C546   1.474       .  S
C200        O205   1.264       .  A
C200        O203   1.264       .  A
C200        C530   1.476       .  S
Cd201       O208   2.472       .  S
Cd201       O207   2.473       .  S
Cd201       O206   2.473       .  S
Cd201       O202   2.483       .  S
Cd201       O205   2.484       .  S
Cd201       O203   2.462       .  S
C204        O208   1.266       .  A
C204        C538   1.478       .  S
O209        C212   1.268       .  A
O209       Cd214   2.488       .  S
C210        O219   1.263       .  A
C210        O215   1.264       .  A
C210        C517   1.478       .  S
O211        C217   1.265       .  A
O211       Cd214   2.487       .  S
C212        O220   1.264       .  A
C212        C521   1.474       .  S
C213        O218   1.262       .  A
C213        O216   1.264       .  A
C213        C513   1.476       .  S
Cd214       O221   2.456       .  S
Cd214       O220   2.444       .  S
Cd214       O219   2.452       .  S
Cd214       O215   2.506       .  S
Cd214       O218   2.475       .  S
Cd214       O216   2.483       .  S
C217        O221   1.266       .  A
C217        C525   1.478       .  S
O222        C225   1.268       .  A
O222       Cd227   2.486       .  S
C223        O232   1.264       .  A
C223        O228   1.269       .  A
C223        C505   1.477       .  S
O224        C230   1.268       .  A
O224       Cd227   2.474       .  S
C225        O233   1.262       .  A
C225        C510   1.474       .  S
C226        O231   1.267       .  A
C226        O229   1.261       .  A
C226        C526   1.474       .  S
Cd227       O234   2.474       .  S
Cd227       O233   2.454       .  S
Cd227       O232   2.446       .  S
Cd227       O228   2.502       .  S
Cd227       O231   2.509       .  S
Cd227       O229   2.445       .  S
C230        O234   1.266       .  A
C230        C501   1.479       .  S
O235        C238   1.262       .  A
O235       Cd240   2.458       .  S
C236        O245   1.266       .  A
C236        O241   1.265       .  A
C236        C493   1.478       .  S
O237        C243   1.265       .  A
O237       Cd240   2.491       .  S
C238        O246   1.263       .  A
C238        C522   1.477       .  S
C239        O244   1.265       .  A
C239        O242   1.268       .  A
C239        C529   1.474       .  S
Cd240       O247   2.446       .  S
Cd240       O246   2.501       .  S
Cd240       O245   2.455       .  S
Cd240       O241   2.484       .  S
Cd240       O244   2.453       .  S
Cd240       O242   2.478       .  S
C243        O247   1.261       .  A
C243        C497   1.470       .  S
O248        C251   1.269       .  A
O248       Cd253   2.506       .  S
C249        O258   1.264       .  A
C249        O254   1.271       .  A
C249        C509   1.474       .  S
O250        C256   1.265       .  A
O250       Cd253   2.484       .  S
C251        O259   1.263       .  A
C251        C489   1.479       .  S
C252        O257   1.268       .  A
C252        O255   1.264       .  A
C252        C554   1.472       .  S
Cd253       O260   2.438       .  S
Cd253       O259   2.448       .  S
Cd253       O258   2.433       .  S
Cd253       O254   2.487       .  S
Cd253       O257   2.459       .  S
Cd253       O255   2.457       .  S
C256        O260   1.264       .  A
C256        C498   1.474       .  S
O261        C264   1.271       .  A
O261       Cd266   2.495       .  S
C262        O271   1.263   1_565  A
C262        O267   1.270       .  A
C262        C481   1.474   1_565  S
O263        C269   1.268       .  A
O263       Cd266   2.486       .  S
C264        O272   1.263       .  A
C264        C518   1.472       .  S
C265        O270   1.269       .  A
C265        O268   1.265       .  A
C265        C477   1.473       .  S
Cd266       O273   2.435       .  S
Cd266       O272   2.416       .  S
Cd266       O271   2.440   1_565  S
Cd266       O267   2.487       .  S
Cd266       O270   2.460       .  S
Cd266       O268   2.451       .  S
C269        O273   1.263       .  A
C269        C485   1.471       .  S
O274        C277   1.266       .  A
O274       Cd279   2.464       .  S
C275        O284   1.264       .  A
C275        O280   1.264       .  A
C275        C506   1.480       .  S
O276        C282   1.264       .  A
O276       Cd279   2.490       .  S
C277        O285   1.263       .  A
C277        C473   1.474   1_565  S
C278        O283   1.263   1_565  A
C278        O281   1.268       .  A
C278        C469   1.471   1_565  S
Cd279       O286   2.453       .  S
Cd279       O285   2.467       .  S
Cd279       O284   2.467       .  S
Cd279       O280   2.498       .  S
Cd279       O283   2.438   1_565  S
Cd279       O281   2.480       .  S
C282        O286   1.264       .  A
C282        C486   1.476       .  S
O287        C290   1.270       .  A
O287       Cd292   2.491       .  S
C288        O297   1.262       .  A
C288        O293   1.270       .  A
C288        C482   1.474       .  S
O289        C295   1.268       .  A
O289       Cd292   2.505       .  S
C290        O298   1.264       .  A
C290        C494   1.474       .  S
C291        O296   1.267       .  A
C291        O294   1.265       .  A
C291        C534   1.472       .  S
Cd292       O299   2.440       .  S
Cd292       O298   2.431       .  S
Cd292       O297   2.442       .  S
Cd292       O293   2.485       .  S
Cd292       O296   2.452       .  S
Cd292       O294   2.467       .  S
C295        O299   1.262       .  A
C295        C465   1.474       .  S
O300        C303   1.268       .  A
O300       Cd305   2.488       .  S
C301        O310   1.266       .  A
C301        O306   1.263       .  A
C301        C490   1.482       .  S
O302        C308   1.267       .  A
O302       Cd305   2.505       .  S
C303        O311   1.262       .  A
C303        C474   1.472       .  S
C304        O309   1.265       .  A
C304        O307   1.264       .  A
C304        C562   1.481       .  S
Cd305       O312   2.443       .  S
Cd305       O311   2.442       .  S
Cd305       O310   2.494       .  S
Cd305       O306   2.486       .  S
Cd305       O309   2.480       .  S
Cd305       O307   2.494       .  S
C308        O312   1.264       .  A
C308        C466   1.480       .  S
O313        C316   1.265       .  A
O313       Cd318   2.489       .  S
C314        O323   1.265       .  A
C314        O319   1.266       .  A
C314        C457   1.474       .  S
O315        C321   1.265       .  A
O315       Cd318   2.477       .  S
C316        O324   1.265       .  A
C316        C453   1.478       .  S
C317        O322   1.266       .  A
C317        O320   1.263       .  A
C317        C502   1.478       .  S
Cd318       O325   2.463       .  S
Cd318       O324   2.454       .  S
Cd318       O323   2.445       .  S
Cd318       O319   2.481       .  S
Cd318       O322   2.491       .  S
Cd318       O320   2.469       .  S
C321        O325   1.263       .  A
C321        C461   1.472       .  S
O326        C329   1.262       .  A
O326       Cd331   2.451       .  S
C327        O336   1.266       .  A
C327        O332   1.267       .  A
C327        C445   1.478       .  S
O328        C334   1.266       .  A
O328       Cd331   2.484       .  S
C329        O337   1.267       .  A
C329        C449   1.470       .  S
C330        O335   1.266       .  A
C330        O333   1.263       .  A
C330        C470   1.473       .  S
Cd331       O338   2.448       .  S
Cd331       O337   2.471       .  S
Cd331       O336   2.453       .  S
Cd331       O332   2.482       .  S
Cd331       O335   2.457       .  S
Cd331       O333   2.464       .  S
C334        O338   1.264       .  A
C334        C462   1.475       .  S
O339        C342   1.266       .  A
O339       Cd344   2.450       .  S
C340        O349   1.261       .  A
C340        O345   1.266       .  A
C340        C437   1.473       .  S
O341        C347   1.265       .  A
O341       Cd344   2.483       .  S
C342        O350   1.263       .  A
C342        C450   1.471       .  S
C343        O348   1.265       .  A
C343        O346   1.268       .  A
C343        C594   1.471       .  S
Cd344       O351   2.445       .  S
Cd344       O350   2.457       .  S
Cd344       O349   2.441       .  S
Cd344       O345   2.505       .  S
Cd344       O348   2.442       .  S
Cd344       O346   2.468       .  S
C347        O351   1.261       .  A
C347        C442   1.469       .  S
O352        C355   1.265       .  A
O352       Cd357   2.494       .  S
C353        O362   1.267       .  A
C353        O358   1.264       .  A
C353        C458   1.471       .  S
O354        C360   1.264       .  A
O354       Cd357   2.488       .  S
C355        O363   1.263       .  A
C355        C434   1.476       .  S
C356        O361   1.262       .  A
C356        O359   1.268       .  A
C356        C625   1.473       .  S
Cd357       O364   2.445       .  S
Cd357       O363   2.461       .  S
Cd357       O362   2.471       .  S
Cd357       O358   2.446       .  S
Cd357       O361   2.435       .  S
Cd357       O359   2.499       .  S
C360        O364   1.263       .  A
C360        C441   1.473       .  S
O365        C368   1.266       .  A
O365       Cd370   2.486       .  S
C366        O375   1.263       .  A
C366        O371   1.266       .  A
C366        C425   1.476       .  S
O367        C373   1.265       .  A
O367       Cd370   2.469       .  S
C368        O376   1.265       .  A
C368        C446   1.476       .  S
C369        O374   1.262       .  A
C369        O372   1.267       .  A
C369        C478   1.473       .  S
Cd370       O377   2.457       .  S
Cd370       O376   2.462       .  S
Cd370       O375   2.433       .  S
Cd370       O371   2.495       .  S
Cd370       O374   2.457       .  S
Cd370       O372   2.482       .  S
C373        O377   1.262       .  A
C373        C430   1.471       .  S
O378        C381   1.269       .  A
O378       Cd383   2.489       .  S
C379        O388   1.261       .  A
C379        O384   1.265       .  A
C379        C454   1.475   1_655  S
O380        C386   1.263       .  A
O380       Cd383   2.472       .  S
C381        O389   1.264       .  A
C381        C421   1.477       .  S
C382        O387   1.263       .  A
C382        O385   1.267       .  A
C382        C514   1.475       .  S
Cd383       O390   2.458       .  S
Cd383       O389   2.447       .  S
Cd383       O388   2.458       .  S
Cd383       O384   2.503       .  S
Cd383       O387   2.460       .  S
Cd383       O385   2.486       .  S
C386        O390   1.264       .  A
C386        C429   1.472       .  S
O391        C394   1.267       .  A
O391       Cd396   2.478       .  S
C392        O401   1.264       .  A
C392        O397   1.265       .  A
C392        C433   1.479       .  S
O393        C399   1.266       .  A
O393       Cd396   2.510       .  S
C394        O402   1.264       .  A
C394        C422   1.479       .  S
C395        O400   1.265       .  A
C395        O398   1.266       .  A
C395        C633   1.475       .  S
Cd396       O403   2.453       .  S
Cd396       O402   2.478       .  S
Cd396       O401   2.462       .  S
Cd396       O397   2.496       .  S
Cd396       O400   2.461       .  S
Cd396       O398   2.485       .  S
C399        O403   1.260       .  A
C399        C417   1.474       .  S
O404        C407   1.264       .  A
O404       Cd409   2.493       .  S
C405        O414   1.267       .  A
C405        O410   1.263       .  A
C405        C426   1.470       .  S
O406        C412   1.264       .  A
O406       Cd409   2.491       .  S
C407        O415   1.265       .  A
C407        C438   1.477       .  S
C408        O413   1.262       .  A
C408        O411   1.266       .  A
C408        C598   1.471       .  S
Cd409       O416   2.456       .  S
Cd409       O415   2.450       .  S
Cd409       O414   2.487       .  S
Cd409       O410   2.434       .  S
Cd409       O413   2.447       .  S
Cd409       O411   2.482       .  S
C412        O416   1.263       .  A
C412        C418   1.477       .  S
C417        C418   1.343       .  D
C417        H419   1.087       .  S
C418        H420   1.087       .  S
C421        C422   1.344       .  D
C421        H423   1.087       .  S
C422        H424   1.086       .  S
C425        C426   1.344       .  D
C425        H427   1.087       .  S
C426        H428   1.087       .  S
C429        C430   1.342       .  D
C429        H431   1.086       .  S
C430        H432   1.086       .  S
C433        C434   1.345       .  D
C433        H435   1.087       .  S
C434        H436   1.087       .  S
C437        C438   1.342       .  D
C437        H439   1.087       .  S
C438        H440   1.087       .  S
C441        C442   1.342       .  D
C441        H443   1.086       .  S
C442        H444   1.087       .  S
C445        C446   1.345   1_455  D
C445        H447   1.087       .  S
C446        H448   1.087   1_655  S
C449        C450   1.340       .  D
C449        H451   1.087       .  S
C450        H452   1.087       .  S
C453        C454   1.344       .  D
C453        H455   1.087       .  S
C454        H456   1.087       .  S
C457        C458   1.343       .  D
C457        H459   1.087       .  S
C458        H460   1.087       .  S
C461        C462   1.344       .  D
C461        H463   1.087       .  S
C462        H464   1.086       .  S
C465        C466   1.345       .  D
C465        H467   1.088       .  S
C466        H468   1.087       .  S
C469        C470   1.341       .  D
C469        H471   1.087       .  S
C470        H472   1.086   1_545  S
C473        C474   1.341       .  D
C473        H475   1.087       .  S
C474        H476   1.087   1_545  S
C477        C478   1.341   1_565  D
C477        H479   1.087       .  S
C478        H480   1.087       .  S
C481        C482   1.340       .  D
C481        H483   1.087       .  S
C482        H484   1.087   1_545  S
C485        C486   1.342       .  D
C485        H487   1.087       .  S
C486        H488   1.086       .  S
C489        C490   1.344       .  D
C489        H491   1.087       .  S
C490        H492   1.087       .  S
C493        C494   1.343       .  D
C493        H495   1.087       .  S
C494        H496   1.087       .  S
C497        C498   1.342       .  D
C497        H499   1.087       .  S
C498        H500   1.086       .  S
C501        C502   1.344       .  D
C501        H503   1.086       .  S
C502        H504   1.087       .  S
C505        C506   1.344       .  D
C505        H507   1.087       .  S
C506        H508   1.087       .  S
C509        C510   1.340       .  D
C509        H511   1.087       .  S
C510        H512   1.087       .  S
C513        C514   1.343       .  D
C513        H515   1.086       .  S
C514        H516   1.086       .  S
C517        C518   1.343       .  D
C517        H519   1.087       .  S
C518        H520   1.087       .  S
C521        C522   1.344       .  D
C521        H523   1.087       .  S
C522        H524   1.086       .  S
C525        C526   1.343       .  D
C525        H527   1.086       .  S
C526        H528   1.087       .  S
C529        C530   1.343       .  D
C529        H531   1.087       .  S
C530        H532   1.086       .  S
C533        C534   1.343       .  D
C533        H535   1.087   1_545  S
C534        H536   1.086       .  S
C537        C538   1.343       .  D
C537        H539   1.087       .  S
C538        H540   1.087       .  S
C541        C542   1.341       .  D
C541        H543   1.087       .  S
C542        H544   1.087       .  S
C545        C546   1.343       .  D
C545        H547   1.087       .  S
C546        H548   1.087       .  S
C549        C550   1.344       .  D
C549        H551   1.087       .  S
C550        H552   1.087       .  S
C553        C554   1.338       .  D
C553        H555   1.087       .  S
C554        H556   1.087       .  S
C557        C558   1.344   1_455  D
C557        H559   1.087   1_455  S
C558        H560   1.086       .  S
C561        C562   1.344       .  D
C561        H563   1.087       .  S
C562        H564   1.086       .  S
C565        C566   1.345   1_455  D
C565        H567   1.087   1_455  S
C566        H568   1.087       .  S
C569        C570   1.344       .  D
C569        H571   1.086       .  S
C570        H572   1.087       .  S
C573        C574   1.344       .  D
C573        H575   1.087       .  S
C574        H576   1.087       .  S
C577        C578   1.343       .  D
C577        H579   1.087       .  S
C578        H580   1.087       .  S
C581        C582   1.344       .  D
C581        H583   1.087       .  S
C582        H584   1.087       .  S
C585        C586   1.344       .  D
C585        H587   1.086       .  S
C586        H588   1.087       .  S
C589        C590   1.341       .  D
C589        H591   1.086       .  S
C590        H592   1.087       .  S
C593        C594   1.341   1_565  D
C593        H595   1.087       .  S
C594        H596   1.087       .  S
C597        C598   1.343   1_565  D
C597        H599   1.086       .  S
C598        H600   1.087       .  S
C601        C602   1.341   1_655  D
C601        H603   1.086       .  S
C602        H604   1.087   1_455  S
C605        C606   1.340   1_565  D
C605        H607   1.087       .  S
C606        H608   1.087       .  S
C609        C610   1.341   1_546  D
C609        H611   1.087       .  S
C610        H612   1.087       .  S
C613        C614   1.343   1_565  D
C613        H615   1.087       .  S
C614        H616   1.087       .  S
C617        C618   1.345   1_565  D
C617        H619   1.087   1_556  S
C618        H620   1.087       .  S
C621        C622   1.343       .  D
C621        H623   1.086       .  S
C622        H624   1.087       .  S
C625        C626   1.343       .  D
C625        H627   1.087       .  S
C626        H628   1.086       .  S
C629        C630   1.342       .  D
C629        H631   1.086       .  S
C630        H632   1.087       .  S
C633        C634   1.344       .  D
C633        H635   1.087       .  S
C634        H636   1.087       .  S
C637        C638   1.345       .  D
C637        H639   1.087       .  S
C638        H640   1.087       .  S
C641        C642   1.345   1_655  D
C641        H643   1.087   1_655  S
C642        H644   1.087       .  S
C645        C646   1.342       .  D
C645        H647   1.087       .  S
C646        H648   1.087       .  S
C649        C650   1.344       .  D
C649        H651   1.086       .  S
C650        H652   1.087       .  S
C653        C654   1.340   1_556  D
C653        H655   1.087       .  S
C654        H656   1.087       .  S
C657        C658   1.345       .  D
C657        H659   1.086       .  S
C658        H660   1.086       .  S
C661        C662   1.345       .  D
C661        H663   1.087       .  S
C662        H664   1.087       .  S
C665        C666   1.343   1_554  D
C665        H667   1.087       .  S
C666        H668   1.087       .  S
C669        C670   1.342       .  D
C669        H671   1.086       .  S
C670        H672   1.087       .  S
