geometry optimzed in LAMMPS
_audit_creation_date              2020-12-01 
_audit_creation_method            'lammps2cif' 
_symmetry_space_group_name_H-M    'P1' 
_symmetry_Int_Tables_number       1 
_symmetry_cell_setting            triclinic 
loop_ 
_symmetry_equiv_pos_as_xyz 
  x,y,z 
_cell_length_a                    39.43220045 
_cell_length_b                    40.022735468106056 
_cell_length_c                    39.59199790983555 
_cell_angle_alpha                 89.61555814723351 
_cell_angle_beta                  90.2885403753031 
_cell_angle_gamma                 90.10524329405676 
loop_ 
_atom_site_label 
_atom_site_type_symbol 
_atom_site_fract_x 
_atom_site_fract_y 
_atom_site_fract_z 
_atom_site_charge 
C1          C  0.79091287  0.81359018  0.02958226     0.03600
C2          C  0.81037191  0.84245602  0.02604935    -0.12500
C3          C  0.82263356  0.85210879  0.99454894     0.01100
C4          C  0.81525571  0.83332964  0.96604967    -0.11100
C5          C  0.79518324  0.80478346  0.96842703     0.03600
C6          C  0.78284531  0.79440509  0.00051046    -0.10500
H7          H  0.81689531  0.85709707  0.04814560     0.09200
H8          H  0.82503181  0.84131564  0.94169876     0.06700
H9          H  0.76738998  0.77212122  0.00278358     0.06600
C10         C  0.76345900  0.25110143  0.03565891     0.03600
C11         C  0.79294984  0.23203194  0.03411100    -0.12500
C12         C  0.80549774  0.22131126  0.00324419     0.01100
C13         C  0.78938816  0.23015402  0.97321234    -0.11100
C14         C  0.76003874  0.24930577  0.97315789     0.03600
C15         C  0.74652002  0.26009068  0.00478284    -0.10500
H16         H  0.80567731  0.22434830  0.05726478     0.09200
H17         H  0.79977031  0.22150055  0.94946838     0.06700
H18         H  0.72347796  0.27472760  0.00537064     0.06600
C19         C  0.23057603  0.83060233  0.03252804     0.03600
C20         C  0.20384354  0.85313183  0.03211515    -0.12500
C21         C  0.19253707  0.86717397  0.00192750     0.01100
C22         C  0.20812674  0.85902080  0.97157684    -0.11100
C23         C  0.23480921  0.83615260  0.97110068     0.03600
C24         C  0.24638150  0.82163873  0.00183039    -0.10500
H25         H  0.19186467  0.86019003  0.05565309     0.09200
H26         H  0.19895396  0.87007627  0.94815824     0.06700
H27         H  0.26701820  0.80382050  0.00183246     0.06600
C28         C  0.78215001  0.06710490  0.77834145     0.03600
C29         C  0.77049272  0.03670118  0.76378337    -0.12500
C30         C  0.78620288  0.00592393  0.77320507     0.01100
C31         C  0.81295994  0.00623970  0.79650924    -0.11100
C32         C  0.82350919  0.03610423  0.81110919     0.03600
C33         C  0.80831950  0.06615652  0.80192385    -0.10500
H34         H  0.74976468  0.03696363  0.74574489     0.09200
H35         H  0.82487558  0.98299606  0.80430538     0.06700
H36         H  0.81707290  0.08917181  0.81349012     0.06600
C37         C  0.97063791  0.24844525  0.77303338     0.03600
C38         C  0.97420450  0.23223199  0.80417949    -0.12500
C39         C  0.00624288  0.22407134  0.81688591     0.01100
C40         C  0.03518858  0.23282260  0.79889508    -0.11100
C41         C  0.03284251  0.24874802  0.76765254     0.03600
C42         C  0.00025695  0.25680876  0.75424623    -0.10500
H43         H  0.95176493  0.22474379  0.81808317     0.09200
H44         H  0.05996661  0.22647587  0.80914980     0.06700
H45         H  0.99799215  0.26903440  0.72986342     0.06600
C46         C  0.97059781  0.82813955  0.78402316     0.03600
C47         C  0.00038174  0.81706937  0.76761368    -0.12500
C48         C  0.03236191  0.82980327  0.77786848     0.01100
C49         C  0.03403345  0.85337627  0.80359851    -0.11100
C50         C  0.00467893  0.86391235  0.81972431     0.03600
C51         C  0.97319832  0.85110352  0.81020789    -0.10500
H52         H  0.99870602  0.79907005  0.74736729     0.09200
H53         H  0.05840746  0.86338425  0.81146883     0.06700
H54         H  0.95047520  0.85976293  0.82277621     0.06600
C55         C  0.22766924  0.06859335  0.79438501     0.03600
C56         C  0.23617568  0.03818092  0.77840969    -0.12500
C57         C  0.22792826  0.00746651  0.79437671     0.01100
C58         C  0.21121539  0.00757716  0.82527693    -0.11100
C59         C  0.20192646  0.03758636  0.84020274     0.03600
C60         C  0.21104830  0.06790066  0.82535975    -0.10500
H61         H  0.24830170  0.03840800  0.75392366     0.09200
H62         H  0.20340359  0.98414252  0.83684569     0.06700
H63         H  0.20284238  0.09110827  0.83674604     0.06600
C64         C  0.96989789  0.80518842  0.21359586     0.03600
C65         C  0.97037270  0.83527594  0.19569179    -0.12500
C66         C  0.00090783  0.85013472  0.18647530     0.01100
C67         C  0.03162991  0.83567637  0.19591309    -0.11100
C68         C  0.03253261  0.80565764  0.21384364     0.03600
C69         C  0.00132180  0.78984207  0.22284529    -0.10500
H70         H  0.94668101  0.84667952  0.18765412     0.09200
H71         H  0.05517018  0.84769461  0.18846017     0.06700
H72         H  0.00147940  0.76630314  0.23647707     0.06600
C73         C  0.76568165  0.07067564  0.22149552     0.03600
C74         C  0.78750542  0.07146535  0.19405572    -0.12500
C75         C  0.79747797  0.04213478  0.17849035     0.01100
C76         C  0.78519006  0.01139599  0.18948916    -0.11100
C77         C  0.76356464  0.00931578  0.21713819     0.03600
C78         C  0.75347145  0.03926788  0.23363582    -0.10500
H79         H  0.79768102  0.09514821  0.18511800     0.09200
H80         H  0.79388812  0.98875799  0.17732577     0.06700
H81         H  0.73693356  0.03814813  0.25536064     0.06600
C82         C  0.96616875  0.24769052  0.24852610     0.03600
C83         C  0.96487309  0.22798333  0.21984692    -0.12500
C84         C  0.99431064  0.21868873  0.20341727     0.01100
C85         C  0.02584764  0.22912700  0.21515649    -0.11100
C86         C  0.02855548  0.24848853  0.24413663     0.03600
C87         C  0.99837569  0.25818218  0.26132311    -0.10500
H88         H  0.94053895  0.21964663  0.21000602     0.09200
H89         H  0.04857097  0.22116216  0.20211196     0.06700
H90         H  0.99991428  0.27329596  0.28385375     0.06600
Zr91       Zr  0.28729917  0.32929287  0.29364821     2.17500
O92         O  0.32453633  0.35312268  0.33661649    -0.50800
O93         O  0.27835998  0.39058061  0.28622040    -0.74000
O94         O  0.34806464  0.32946797  0.27504194    -0.80800
O95         O  0.21976163  0.29737428  0.36009231    -0.82600
O96         O  0.35185533  0.31096219  0.22086211    -0.78200
O97         O  0.27159400  0.32203443  0.35428138    -0.89800
O98         O  0.23534749  0.40109177  0.24924315    -0.75800
O99         O  0.27630029  0.34111451  0.23547777    -0.85300
O100        O  0.22731385  0.33653360  0.28798725    -0.85000
O101        O  0.30603753  0.28019706  0.26365917    -0.71700
O102        O  0.26078859  0.27742173  0.31039632    -0.83900
Zr103      Zr  0.20946850  0.24775516  0.21390348     2.26400
Zr104      Zr  0.29507808  0.29282844  0.20522050     2.06300
Zr105      Zr  0.20091980  0.28455797  0.30350212     2.10000
Zr106      Zr  0.21631395  0.34737785  0.22982123     1.78800
O107        O  0.18407524  0.23787188  0.33948493    -0.92700
O108        O  0.23055561  0.37897765  0.17903119    -0.40500
O109        O  0.19041025  0.29561265  0.24514612    -0.77100
O110        O  0.23505313  0.30063701  0.19791891    -0.95800
O111        O  0.26915005  0.24053065  0.22074833    -0.89100
O112        O  0.21899917  0.23635710  0.27255350    -0.91900
C113        C  0.25864017  0.41060689  0.26950101     1.01800
C114        C  0.24669133  0.31059321  0.37227040     1.14700
C115        C  0.36518734  0.32197951  0.24820513     1.05500
O116        O  0.30952103  0.33870770  0.16717468    -0.94100
O117        O  0.27894953  0.27673114  0.14863696    -0.89800
O118        O  0.22685542  0.25229016  0.15310888    -0.83000
C119        C  0.25242520  0.26337704  0.13572525     1.12200
O120        O  0.32365466  0.22215680  0.32114224    -0.96100
Zr121      Zr  0.27868974  0.22946009  0.27925941     1.88900
O122        O  0.22017062  0.18624581  0.21952333    -0.72700
O123        O  0.33563132  0.25351427  0.18186043    -0.52000
O124        O  0.33015206  0.20714352  0.25400363    -0.96700
O125        O  0.26146726  0.19749855  0.32890812    -0.53900
O126        O  0.26179790  0.17576152  0.25806277    -0.73200
C127        C  0.23981828  0.16619608  0.23643814     0.99100
O128        O  0.16596110  0.22571967  0.17608419    -0.62100
O129        O  0.15986216  0.32359070  0.32694330    -0.56900
O130        O  0.14863332  0.25111020  0.23167798    -0.93500
O131        O  0.14383115  0.27162323  0.28504539    -0.92000
O132        O  0.16577377  0.37206565  0.25438471    -0.92300
O133        O  0.16948350  0.35139855  0.18969007    -0.91100
C134        C  0.13100358  0.26016107  0.25768839     1.17900
H135        H  0.21952793  0.35462360  0.30195511     0.33900
H136        H  0.22935998  0.30730115  0.17515760     0.44700
H137        H  0.20662561  0.21668933  0.27961902     0.38300
H138        H  0.32939419  0.27449061  0.26790488     0.34700
H139        H  0.21918547  0.40082871  0.18175431     0.26500
H140        H  0.34956664  0.26704280  0.16613071     0.32500
H141        H  0.32925227  0.18273842  0.25813625     0.38400
H142        H  0.16400314  0.39446496  0.24374910     0.32800
H143        H  0.14871957  0.31104057  0.34546336     0.31700
H144        H  0.17020767  0.24804284  0.35746656     0.33400
H145        H  0.23971913  0.18678714  0.32259030     0.32400
H146        H  0.15728864  0.32985693  0.19199403     0.36400
H147        H  0.16153004  0.24373006  0.15937657     0.29100
H148        H  0.33630877  0.37196587  0.32531023     0.33300
H149        H  0.32870781  0.19792295  0.32143902     0.36200
H150        H  0.17334521  0.34099465  0.33855814     0.28800
H151        H  0.17725828  0.20785543  0.16313707     0.41700
H152        H  0.31741249  0.35696722  0.18204022     0.31700
H153        H  0.25502031  0.38406933  0.18142076     0.39300
H154        H  0.25514839  0.21459674  0.34569101     0.31200
H155        H  0.35116636  0.24791033  0.20077111     0.31300
H156        H  0.34239202  0.33618223  0.34067179     0.31500
C157        C  0.22347864  0.06524018  0.22529955     0.03600
C158        C  0.24352294  0.03626853  0.23199333    -0.12500
C159        C  0.23020948  0.00401291  0.22440007     0.01100
C160        C  0.19794448  0.00142538  0.21020726    -0.11100
C161        C  0.17887765  0.02981787  0.20289239     0.03600
C162        C  0.19120868  0.06137189  0.21130620    -0.10500
H163        H  0.26886139  0.03877993  0.24233830     0.09200
H164        H  0.18806142  0.97707025  0.20322423     0.06700
H165        H  0.17644984  0.08335322  0.20470514     0.06600
Zr166      Zr  0.28883950  0.74777431  0.29557789     2.17500
O167        O  0.32524047  0.70500884  0.32081598    -0.50800
O168        O  0.27723484  0.75210686  0.35722360    -0.74000
O169        O  0.34957390  0.76557385  0.29738838    -0.80800
O170        O  0.22288387  0.68274797  0.25988474    -0.82600
O171        O  0.35483079  0.81961001  0.27944528    -0.78200
O172        O  0.27469733  0.68803087  0.28511085    -0.89800
O173        O  0.23589635  0.79015444  0.36740560    -0.75800
O174        O  0.27881583  0.80528563  0.30778435    -0.85300
O175        O  0.22880802  0.75341847  0.30152760    -0.85000
O176        O  0.30892748  0.77885171  0.24693673    -0.71700
O177        O  0.26320249  0.73230195  0.24254211    -0.83900
Zr178      Zr  0.21359548  0.82891758  0.21316692     2.26400
Zr179      Zr  0.29875709  0.83657568  0.25964031     2.06300
Zr180      Zr  0.20331712  0.73923180  0.24821103     2.10000
Zr181      Zr  0.21878503  0.81088602  0.31311466     1.78800
O182        O  0.18824703  0.70604897  0.19902966    -0.92700
O183        O  0.23387871  0.86068621  0.34497969    -0.40500
O184        O  0.19347657  0.79672697  0.26042294    -0.77100
O185        O  0.23866477  0.84376232  0.26691860    -0.95800
O186        O  0.27329308  0.82202950  0.20652175    -0.89100
O187        O  0.22267592  0.77122927  0.20063024    -0.91900
C188        C  0.25766071  0.76867280  0.37717709     1.01800
C189        C  0.25006426  0.67040447  0.27272693     1.14700
C190        C  0.36733885  0.79200606  0.29049154     1.05500
O191        O  0.31794477  0.87549637  0.30277197    -0.94100
O192        O  0.28231887  0.89341718  0.24474452    -0.89800
O193        O  0.23142453  0.88874046  0.21759047    -0.83000
C194        C  0.25633641  0.90610202  0.22985958     1.12200
O195        O  0.32854136  0.72404524  0.19011650    -0.96100
Zr196      Zr  0.28244513  0.76424783  0.19510514     1.88900
O197        O  0.22414524  0.82372626  0.15158316    -0.72700
O198        O  0.33786347  0.85610871  0.21635332    -0.52000
O199        O  0.33367977  0.78849583  0.17087088    -0.96700
O200        O  0.26549874  0.71603989  0.16158827    -0.53900
O201        O  0.26613383  0.78635018  0.14127058    -0.73200
C202        C  0.24405269  0.80755640  0.13166495     0.99100
O203        O  0.17118960  0.86692661  0.18965461    -0.62100
O204        O  0.16049997  0.71308948  0.28395880    -0.56900
O205        O  0.15238089  0.81308374  0.21651953    -0.93500
O206        O  0.14658511  0.75921999  0.23473007    -0.92000
O207        O  0.16758777  0.78569657  0.33627986    -0.92300
O208        O  0.17232544  0.85044427  0.31844158    -0.91100
C209        C  0.13423302  0.78714124  0.22443311     1.17900
H210        H  0.22033813  0.73913751  0.31936045     0.33900
H211        H  0.23293772  0.86611213  0.27372480     0.44700
H212        H  0.21059490  0.76491304  0.18037495     0.38300
H213        H  0.33230405  0.77460309  0.24147682     0.34700
H214        H  0.22251736  0.85788997  0.36706723     0.26500
H215        H  0.35007721  0.87501142  0.22692159     0.32500
H216        H  0.33301187  0.78254492  0.14664277     0.38400
H217        H  0.16716513  0.79273487  0.36020141     0.32800
H218        H  0.15035171  0.69536395  0.26977919     0.31700
H219        H  0.16814907  0.69298365  0.20614888     0.33400
H220        H  0.24390835  0.72249897  0.15050128     0.32400
H221        H  0.16026452  0.84939837  0.29647605     0.36400
H222        H  0.16546734  0.88234061  0.20823680     0.29100
H223        H  0.33746414  0.71619391  0.33951252     0.33300
H224        H  0.33178445  0.72079344  0.16556750     0.36200
H225        H  0.17329048  0.70084538  0.30168332     0.28800
H226        H  0.18336750  0.88091655  0.17291358     0.41700
H227        H  0.31786226  0.86239447  0.32406699     0.31700
H228        H  0.25831787  0.85808281  0.35016020     0.39300
H229        H  0.25896583  0.69880763  0.17840088     0.31200
H230        H  0.35510947  0.83827485  0.21456843     0.31300
H231        H  0.34285522  0.70037911  0.30373646     0.31500
Zr232      Zr  0.78764206  0.24917284  0.21790835     2.17500
O233        O  0.82765989  0.22511916  0.17798420    -0.50800
O234        O  0.77611520  0.18832028  0.22683656    -0.74000
O235        O  0.84808706  0.24965580  0.23885106    -0.80800
O236        O  0.71998920  0.27633344  0.14924512    -0.82600
O237        O  0.85227674  0.27384595  0.29069814    -0.78200
O238        O  0.77247910  0.25338397  0.15633468    -0.89800
O239        O  0.73460864  0.18003436  0.26570820    -0.75800
O240        O  0.77740398  0.24159650  0.27689373    -0.85300
O241        O  0.72774772  0.24177750  0.22437982    -0.85000
O242        O  0.80584255  0.30038580  0.24478523    -0.71700
O243        O  0.76027131  0.29926957  0.19740344    -0.83900
Zr244      Zr  0.70985587  0.33521657  0.29203208     2.26400
Zr245      Zr  0.79548379  0.29215256  0.30414094     2.06300
Zr246      Zr  0.70057959  0.29212990  0.20508938     2.10000
Zr247      Zr  0.71761005  0.23479576  0.28325032     1.78800
O248        O  0.68289025  0.33644928  0.16649547    -0.92700
O249        O  0.73497723  0.20651873  0.33523861    -0.40500
O250        O  0.69100849  0.28502409  0.26422664    -0.77100
O251        O  0.73575550  0.28389604  0.31201530    -0.95800
O252        O  0.76922823  0.34263381  0.28412207    -0.89100
O253        O  0.71842109  0.34259024  0.23261215    -0.91900
C254        C  0.75632841  0.16933067  0.24465063     1.01800
C255        C  0.74725671  0.26343374  0.13760246     1.14700
C256        C  0.86534144  0.25974089  0.26494667     1.05500
O257        O  0.81072068  0.24868667  0.34478312    -0.94100
O258        O  0.77920857  0.31135792  0.35987196    -0.89800
O259        O  0.72675373  0.33448702  0.35333067    -0.83000
C260        C  0.75240375  0.32498179  0.37173408     1.12200
O261        O  0.82184438  0.35196404  0.18176080    -0.96100
Zr262      Zr  0.77794044  0.34948751  0.22486364     1.88900
O263        O  0.72173144  0.39610001  0.28311706    -0.72700
O264        O  0.83499853  0.33477941  0.32373142    -0.52000
O265        O  0.82975621  0.37548969  0.24591777    -0.96700
O266        O  0.75868659  0.37784666  0.17355878    -0.53900
O267        O  0.76225903  0.40443631  0.24331434    -0.73200
C268        C  0.74132368  0.41515981  0.26515420     0.99100
O269        O  0.66721121  0.36319967  0.32606663    -0.62100
O270        O  0.65909227  0.25223119  0.18343736    -0.56900
O271        O  0.64886628  0.32864669  0.27559867    -0.93500
O272        O  0.64352330  0.30537580  0.22340495    -0.92000
O273        O  0.66648352  0.20881180  0.26066659    -0.92300
O274        O  0.67245193  0.23140775  0.32491682    -0.91100
C275        C  0.63094675  0.31786781  0.25030943     1.17900
H276        H  0.71977855  0.22276819  0.21169708     0.33900
H277        H  0.73023107  0.27853678  0.33510168     0.44700
H278        H  0.70578608  0.36163155  0.22432649     0.38300
H279        H  0.82923408  0.30568281  0.24027752     0.34700
H280        H  0.72182993  0.18541611  0.33561291     0.26500
H281        H  0.85116388  0.32270017  0.33860704     0.32500
H282        H  0.82933087  0.39865461  0.23699999     0.38400
H283        H  0.66526649  0.18667419  0.27192274     0.32800
H284        H  0.65033114  0.26261950  0.16237602     0.31700
H285        H  0.65998918  0.32968811  0.15875491     0.33400
H286        H  0.73727377  0.38909007  0.17970270     0.32400
H287        H  0.66281852  0.25422570  0.32550775     0.36400
H288        H  0.66077276  0.34677310  0.34372270     0.29100
H289        H  0.84031124  0.20774997  0.19073910     0.33300
H290        H  0.82527869  0.37602251  0.17683508     0.36200
H291        H  0.67235698  0.23278821  0.17569786     0.28800
H292        H  0.67962975  0.38094096  0.33833515     0.41700
H293        H  0.81813784  0.22949623  0.33101539     0.31700
H294        H  0.75861958  0.19939562  0.33115198     0.39300
H295        H  0.75163565  0.35961145  0.15825965     0.31200
H296        H  0.84841954  0.34097913  0.30357178     0.31300
H297        H  0.84450008  0.24294656  0.17336813     0.31500
Zr298      Zr  0.70910651  0.75289212  0.29186918     2.17500
O299        O  0.66519503  0.71500502  0.31254197    -0.50800
O300        O  0.71475602  0.76015808  0.35397351    -0.74000
O301        O  0.72724277  0.69294180  0.29099603    -0.80800
O302        O  0.64335767  0.82156036  0.26342985    -0.82600
O303        O  0.78116789  0.68861289  0.27098895    -0.78200
O304        O  0.64853840  0.76929575  0.28613005    -0.89800
O305        O  0.75186019  0.80199448  0.36595941    -0.75800
O306        O  0.76775962  0.76172704  0.30408059    -0.85300
O307        O  0.71588113  0.81152843  0.30119132    -0.85000
O308        O  0.73918253  0.73589062  0.24173609    -0.71700
O309        O  0.69182909  0.78175972  0.24094204    -0.83900
Zr310      Zr  0.79017516  0.83095368  0.21255533     2.26400
Zr311      Zr  0.79816306  0.74492726  0.25458578     2.06300
Zr312      Zr  0.70034316  0.84015236  0.24985004     2.10000
Zr313      Zr  0.77448307  0.82030396  0.31274644     1.78800
O314        O  0.66566212  0.85877787  0.20220600    -0.92700
O315        O  0.82233808  0.80057705  0.34651827    -0.40500
O316        O  0.75922996  0.84841838  0.26162243    -0.77100
O317        O  0.80652101  0.80349703  0.26479406    -0.95800
O318        O  0.78151901  0.77281696  0.20333207    -0.89100
O319        O  0.73104758  0.82360483  0.20049181    -0.91900
C320        C  0.73092763  0.77928337  0.37476986     1.01800
C321        C  0.63081127  0.79467847  0.27596260     1.14700
C322        C  0.75370202  0.67575662  0.28253204     1.05500
O323        O  0.83680802  0.72752007  0.29952531    -0.94100
O324        O  0.85547083  0.76092386  0.23853524    -0.89800
O325        O  0.85091832  0.81289649  0.21508966    -0.83000
C326        C  0.86842470  0.78723685  0.22510228     1.12200
O327        O  0.67769421  0.72304714  0.19053593    -0.96100
Zr328      Zr  0.72243409  0.76521678  0.19200999     1.88900
O329        O  0.78508857  0.82101025  0.15059927    -0.72700
O330        O  0.81966140  0.70712229  0.21183269    -0.52000
O331        O  0.74293879  0.71517958  0.16401946    -0.96700
O332        O  0.67364318  0.78499497  0.15939266    -0.53900
O333        O  0.74573214  0.78115456  0.13857813    -0.73200
C334        C  0.76848636  0.80209227  0.12987344     0.99100
O335        O  0.82815454  0.87348811  0.18949568    -0.62100
O336        O  0.67555896  0.88011444  0.28884039    -0.56900
O337        O  0.77460201  0.89112326  0.21916147    -0.93500
O338        O  0.72095568  0.89643938  0.23970628    -0.92000
O339        O  0.75241221  0.87144611  0.33729525    -0.92300
O340        O  0.81881292  0.86201940  0.32058035    -0.91100
C341        C  0.74899223  0.90879504  0.22909175     1.17900
H342        H  0.70194090  0.81881885  0.31970708     0.33900
H343        H  0.82952098  0.80848703  0.27143089     0.44700
H344        H  0.72452378  0.83671931  0.18097122     0.38300
H345        H  0.73460876  0.71314264  0.23534231     0.34700
H346        H  0.82074491  0.81286159  0.36808228     0.26500
H347        H  0.83164124  0.68937771  0.22468410     0.32500
H348        H  0.73208442  0.71545831  0.14141403     0.38400
H349        H  0.76391074  0.87327093  0.35950176     0.32800
H350        H  0.65484110  0.88831609  0.27726122     0.31700
H351        H  0.64666461  0.87116619  0.21249184     0.33400
H352        H  0.67557401  0.77388435  0.13721495     0.32400
H353        H  0.82136800  0.87261720  0.29806687     0.36400
H354        H  0.84538693  0.87748339  0.20730586     0.29100
H355        H  0.67575843  0.70238642  0.33143663     0.33300
H356        H  0.67315082  0.71866662  0.16635477     0.36200
H357        H  0.66702759  0.86667922  0.30809226     0.28800
H358        H  0.84064326  0.86233512  0.17109990     0.41700
H359        H  0.82199324  0.72064374  0.31846273     0.31700
H360        H  0.81655378  0.77722315  0.35258634     0.39300
H361        H  0.67825973  0.80881915  0.15441625     0.31200
H362        H  0.79923087  0.69598998  0.20257587     0.31300
H363        H  0.66174765  0.69836708  0.29443779     0.31500
C364        C  0.23367894  0.25669016  0.03486084     0.03600
C365        C  0.20408842  0.23792929  0.03525400    -0.12500
C366        C  0.18910306  0.22722312  0.00546186     0.01100
C367        C  0.20244737  0.23656831  0.97433537    -0.11100
C368        C  0.23193338  0.25584315  0.97254135     0.03600
C369        C  0.24816405  0.26603510  0.00318389    -0.10500
H370        H  0.19313646  0.23023722  0.05921916     0.09200
H371        H  0.19054604  0.22750513  0.95136762     0.06700
H372        H  0.27148246  0.28033480  0.00239528     0.06600
Zr373      Zr  0.21045313  0.24782976  0.79156774     2.17500
O374        O  0.17210463  0.22298484  0.83291175    -0.50800
O375        O  0.21906747  0.18673830  0.78485804    -0.74000
O376        O  0.14997436  0.24936987  0.77200040    -0.80800
O377        O  0.27949319  0.27398252  0.85896346    -0.82600
O378        O  0.14562806  0.27132419  0.71887245    -0.78200
O379        O  0.22531411  0.25493901  0.85265672    -0.89800
O380        O  0.25976428  0.17550036  0.74610415    -0.75800
O381        O  0.21916733  0.23884019  0.73268909    -0.85300
O382        O  0.26970669  0.23726206  0.78464874    -0.85000
O383        O  0.19339836  0.29908708  0.76348432    -0.71700
O384        O  0.24019971  0.29698911  0.81016224    -0.83900
Zr385      Zr  0.29062316  0.32789241  0.71413146     2.26400
Zr386      Zr  0.20246493  0.28954846  0.70431703     2.06300
Zr387      Zr  0.29923794  0.28664204  0.80227345     2.10000
Zr388      Zr  0.27842263  0.22889285  0.72578107     1.78800
O389        O  0.32101716  0.32813904  0.84152551    -0.92700
O390        O  0.25665562  0.19933899  0.67656516    -0.40500
O391        O  0.30806948  0.27784854  0.74332457    -0.77100
O392        O  0.26157172  0.27787991  0.69592270    -0.95800
O393        O  0.23178763  0.33901218  0.72222625    -0.89100
O394        O  0.28311240  0.33702431  0.77325986    -0.91900
C395        C  0.23767061  0.16649964  0.76770475     1.01800
C396        C  0.25113156  0.26383415  0.87101501     1.14700
C397        C  0.13263506  0.25853076  0.74560014     1.05500
O398        O  0.18110296  0.24972990  0.66311516    -0.94100
O399        O  0.21945957  0.30684546  0.64789247    -0.89800
O400        O  0.27301430  0.32767469  0.65339870    -0.83000
C401        C  0.24685101  0.31902162  0.63552593     1.12200
O402        O  0.18106407  0.35176037  0.82507223    -0.96100
Zr403      Zr  0.22421565  0.34724314  0.78139587     1.88900
O404        O  0.28379723  0.38896112  0.72087601    -0.72700
O405        O  0.16486216  0.33506448  0.68763282    -0.52000
O406        O  0.17421679  0.37653409  0.76021506    -0.96700
O407        O  0.24437471  0.37580768  0.83196916    -0.53900
O408        O  0.24479768  0.40031459  0.76128094    -0.73200
C409        C  0.26615962  0.40925748  0.73887209     0.99100
O410        O  0.33513983  0.34799108  0.67656632    -0.62100
O411        O  0.33774006  0.24237900  0.82059381    -0.56900
O412        O  0.35109929  0.32311932  0.73153855    -0.93500
O413        O  0.35600541  0.30166433  0.78480569    -0.92000
O414        O  0.32967925  0.20066861  0.74521333    -0.92300
O415        O  0.32177584  0.22480420  0.68234103    -0.91100
C416        C  0.36868496  0.31361991  0.75757816     1.17900
H417        H  0.27693208  0.21818094  0.79786834     0.33900
H418        H  0.26638264  0.27192478  0.67289560     0.44700
H419        H  0.29689243  0.35554954  0.78073866     0.38300
H420        H  0.17022282  0.30513774  0.76809608     0.34700
H421        H  0.26994452  0.17839603  0.67572715     0.26500
H422        H  0.14927834  0.32507299  0.67079492     0.32500
H423        H  0.17833579  0.40043508  0.76507779     0.38400
H424        H  0.32883462  0.17836428  0.73455710     0.32800
H425        H  0.35500466  0.25379698  0.83464692     0.31700
H426        H  0.34132390  0.31763966  0.85184257     0.33400
H427        H  0.23803137  0.39952790  0.82859809     0.32400
H428        H  0.32698516  0.24824579  0.67607057     0.36400
H429        H  0.33869612  0.32984597  0.66007775     0.29100
H430        H  0.15958807  0.20530104  0.82065300     0.33300
H431        H  0.17680382  0.37597737  0.82771825     0.36200
H432        H  0.32466187  0.22865399  0.83685262     0.28800
H433        H  0.32486598  0.36649810  0.66334065     0.41700
H434        H  0.20166002  0.24023238  0.65264887     0.31700
H435        H  0.23355496  0.19203626  0.68300466     0.39300
H436        H  0.26940865  0.37570235  0.83047509     0.31200
H437        H  0.15048535  0.33900445  0.70763530     0.31300
H438        H  0.15495657  0.24037977  0.83756396     0.31500
Zr439      Zr  0.21019929  0.82920786  0.79429835     2.17500
O440        O  0.16731516  0.85215513  0.83188279    -0.50800
O441        O  0.21906531  0.89000887  0.78646590    -0.74000
O442        O  0.22840877  0.82932375  0.85422897    -0.80800
O443        O  0.14276097  0.80306786  0.72668979    -0.82600
O444        O  0.28131904  0.80726175  0.85987696    -0.78200
O445        O  0.14940601  0.82422058  0.77962322    -0.89800
O446        O  0.25886904  0.90033335  0.74638958    -0.75800
O447        O  0.26951406  0.83754459  0.78634915    -0.85300
O448        O  0.21781381  0.83934906  0.73525392    -0.85000
O449        O  0.23647668  0.77768733  0.81289543    -0.71700
O450        O  0.19062310  0.78017614  0.76532041    -0.83900
Zr451      Zr  0.28637872  0.74688491  0.71757116     2.26400
Zr452      Zr  0.29607968  0.78651869  0.80444434     2.06300
Zr453      Zr  0.19936585  0.78990283  0.70646645     2.10000
Zr454      Zr  0.27718526  0.84654412  0.72718753     1.78800
O455        O  0.15933814  0.74967039  0.68321088    -0.92700
O456        O  0.32802189  0.87651298  0.74495549    -0.40500
O457        O  0.25896203  0.79737401  0.69862359    -0.77100
O458        O  0.30567747  0.79707555  0.74545266    -0.95800
O459        O  0.27719307  0.73694335  0.77619121    -0.89100
O460        O  0.22666930  0.73899695  0.72395136    -0.91900
C461        C  0.23755465  0.90982095  0.76843361     1.01800
C462        C  0.13099476  0.81469888  0.75437810     1.14700
C463        C  0.25455951  0.82068076  0.87193316     1.05500
O464        O  0.33982194  0.82478777  0.82419991    -0.94100
O465        O  0.35208746  0.76681165  0.78966936    -0.89800
O466        O  0.34651007  0.74509865  0.73689780    -0.83000
C467        C  0.36428200  0.75348241  0.76306182     1.12200
O468        O  0.17240525  0.72706345  0.82459087    -0.96100
Zr469      Zr  0.21748710  0.72954672  0.78269814     1.88900
O470        O  0.27645244  0.68604698  0.72463003    -0.72700
O471        O  0.30974536  0.74189556  0.84425144    -0.52000
O472        O  0.23566139  0.69811569  0.83252608    -0.96700
O473        O  0.16673689  0.70291716  0.75966815    -0.53900
O474        O  0.23628714  0.67565249  0.76431626    -0.73200
C475        C  0.25792569  0.66617170  0.74259393     0.99100
O476        O  0.32464701  0.72438548  0.67514981    -0.62100
O477        O  0.18105211  0.83465558  0.66849288    -0.56900
O478        O  0.27130229  0.75241431  0.65699038    -0.93500
O479        O  0.21869237  0.77514934  0.65035047    -0.92000
O480        O  0.25612267  0.87313652  0.67574322    -0.92300
O481        O  0.32124505  0.85025524  0.68444178    -0.91100
C482        C  0.24608258  0.76256385  0.63865066     1.17900
H483        H  0.20515456  0.85868721  0.72778475     0.33900
H484        H  0.32913969  0.80214145  0.74091252     0.44700
H485        H  0.21881913  0.72054587  0.71037598     0.38300
H486        H  0.23149974  0.77230646  0.83613223     0.34700
H487        H  0.32728882  0.89799291  0.73240763     0.26500
H488        H  0.32633757  0.75199892  0.86003540     0.32500
H489        H  0.22415065  0.67617361  0.83081625     0.38400
H490        H  0.26669421  0.89559712  0.67559667     0.32800
H491        H  0.16690162  0.82339641  0.65124472     0.31700
H492        H  0.14538888  0.76274123  0.66701513     0.33400
H493        H  0.17413292  0.69132199  0.73897123     0.32400
H494        H  0.32461878  0.82691987  0.67703467     0.36400
H495        H  0.34251871  0.74152379  0.67196095     0.29100
H496        H  0.17864407  0.87051250  0.84425912     0.33300
H497        H  0.16725344  0.70302584  0.82776432     0.36200
H498        H  0.16475952  0.84806680  0.68163466     0.28800
H499        H  0.33626639  0.70526947  0.68618522     0.41700
H500        H  0.34793186  0.83623189  0.80351711     0.31700
H501        H  0.32367524  0.88273724  0.76869758     0.39300
H502        H  0.15255344  0.72164525  0.75131233     0.31200
H503        H  0.28893922  0.73889679  0.85784138     0.31300
H504        H  0.16308203  0.83462493  0.84914117     0.31500
Zr505      Zr  0.78800963  0.24693815  0.79460935     2.17500
O506        O  0.83002237  0.22444721  0.83399897    -0.50800
O507        O  0.77969558  0.18589588  0.78511837    -0.74000
O508        O  0.76785518  0.24779241  0.85481705    -0.80800
O509        O  0.85719667  0.27309846  0.72779925    -0.82600
O510        O  0.71487458  0.27027428  0.85782866    -0.78200
O511        O  0.84947920  0.25075361  0.78034523    -0.89800
O512        O  0.74004407  0.17684457  0.74430427    -0.75800
O513        O  0.72917974  0.23791003  0.78321302    -0.85300
O514        O  0.78294334  0.23946053  0.73484964    -0.85000
O515        O  0.75971600  0.29759252  0.81172102    -0.71700
O516        O  0.80802979  0.29724633  0.76723074    -0.83900
Zr517      Zr  0.71352264  0.33129916  0.71432092     2.26400
Zr518      Zr  0.70060852  0.28799619  0.80035735     2.06300
Zr519      Zr  0.80161288  0.29003823  0.70759145     2.10000
Zr520      Zr  0.72425970  0.23116554  0.72347482     1.78800
O521        O  0.83977036  0.33545150  0.69192741    -0.92700
O522        O  0.67091341  0.20317333  0.73645924    -0.40500
O523        O  0.74266380  0.28157435  0.69667502    -0.77100
O524        O  0.69419853  0.27978759  0.74054897    -0.95800
O525        O  0.71991944  0.33868229  0.77373478    -0.89100
O526        O  0.77277109  0.34001633  0.72446633    -0.91900
C527        C  0.76136742  0.16654211  0.76631120     1.01800
C528        C  0.86843547  0.26020495  0.75536614     1.14700
C529        C  0.74140635  0.25742328  0.87160574     1.05500
O530        O  0.65956556  0.24481282  0.81515860    -0.94100
O531        O  0.64479195  0.30671352  0.78210542    -0.89800
O532        O  0.65190313  0.32999290  0.72984954    -0.83000
C533        C  0.63319563  0.32031930  0.75499715     1.12200
O534        O  0.81848770  0.34825513  0.83164420    -0.96100
Zr535      Zr  0.77903506  0.34685619  0.78400335     1.88900
O536        O  0.72196284  0.39241655  0.72490507    -0.72700
O537        O  0.67955338  0.33005077  0.83913681    -0.52000
O538        O  0.75416251  0.37473634  0.83247707    -0.96700
O539        O  0.83168976  0.37488072  0.76840386    -0.53900
O540        O  0.76119467  0.40151420  0.76613558    -0.73200
C541        C  0.73964699  0.41181871  0.74434911     0.99100
O542        O  0.67846818  0.35691176  0.67034479    -0.62100
O543        O  0.82538135  0.25154745  0.66650575    -0.56900
O544        O  0.73115527  0.32529492  0.65393030    -0.93500
O545        O  0.78385362  0.30238457  0.64995033    -0.92000
O546        O  0.75084810  0.20289467  0.67620844    -0.92300
O547        O  0.68583444  0.22791316  0.67523744    -0.91100
C548        C  0.75689868  0.31477492  0.63667237     1.17900
H549        H  0.79624875  0.22061490  0.72757692     0.33900
H550        H  0.67121404  0.27414140  0.73444619     0.44700
H551        H  0.78095114  0.35924223  0.71206869     0.38300
H552        H  0.76385465  0.30324593  0.83498295     0.34700
H553        H  0.67267086  0.18096560  0.72573549     0.26500
H554        H  0.66446748  0.31765571  0.85474894     0.32500
H555        H  0.76632599  0.39631351  0.83433160     0.38400
H556        H  0.73971517  0.18072000  0.67526941     0.32800
H557        H  0.84642420  0.26254921  0.65856306     0.31700
H558        H  0.84865219  0.32910850  0.66952714     0.33400
H559        H  0.82632085  0.38745579  0.74744428     0.32400
H560        H  0.68244965  0.25143427  0.66808550     0.36400
H561        H  0.66218762  0.33931811  0.66349510     0.29100
H562        H  0.81836392  0.20618513  0.84633889     0.33300
H563        H  0.82473762  0.37204339  0.83450581     0.36200
H564        H  0.83333803  0.23198588  0.67973967     0.28800
H565        H  0.66454296  0.37383881  0.68197919     0.41700
H566        H  0.67333748  0.22530898  0.82225552     0.31700
H567        H  0.67212643  0.19840432  0.76099871     0.39300
H568        H  0.84685956  0.35667839  0.76101524     0.31200
H569        H  0.69942693  0.33627243  0.85313232     0.31300
H570        H  0.83368601  0.24215588  0.85099261     0.31500
Zr571      Zr  0.78725087  0.82856566  0.79326860     2.17500
O572        O  0.80726173  0.87163724  0.83196424    -0.50800
O573        O  0.84936503  0.82400508  0.78550724    -0.74000
O574        O  0.78918314  0.80906267  0.85294415    -0.80800
O575        O  0.75749586  0.89516712  0.72613291    -0.82600
O576        O  0.77120125  0.75503448  0.85694461    -0.78200
O577        O  0.78052356  0.88866650  0.77867270    -0.89800
O578        O  0.86184192  0.78654502  0.74455850    -0.75800
O579        O  0.80019525  0.77124976  0.78324882    -0.85300
O580        O  0.79606692  0.82387284  0.73383999    -0.85000
O581        O  0.73787706  0.79731459  0.81138407    -0.71700
O582        O  0.73528882  0.84519398  0.76574915    -0.83900
Zr583      Zr  0.70804548  0.74965790  0.71451986     2.26400
Zr584      Zr  0.75126304  0.73973766  0.80078927     2.06300
Zr585      Zr  0.74378343  0.83918214  0.70638505     2.10000
Zr586      Zr  0.80829767  0.76655925  0.72379940     1.78800
O587        O  0.69493624  0.87239990  0.68901342    -0.92700
O588        O  0.83960186  0.71639041  0.73972247    -0.40500
O589        O  0.75644065  0.78172367  0.69669987    -0.77100
O590        O  0.76095940  0.73368919  0.74124423    -0.95800
O591        O  0.69905254  0.75554060  0.77375583    -0.89100
O592        O  0.69503842  0.80728442  0.72359325    -0.91900
C593        C  0.87039270  0.80761146  0.76705818     1.01800
C594        C  0.77004014  0.90687390  0.75360591     1.14700
C595        C  0.78247917  0.78217078  0.86993370     1.05500
O596        O  0.79452643  0.69970224  0.81812256    -0.94100
O597        O  0.73503092  0.68366272  0.78296396    -0.89800
O598        O  0.71178613  0.68942675  0.73043133    -0.83000
C599        C  0.72201554  0.67155484  0.75586551     1.12200
O600        O  0.68461872  0.85608304  0.82645632    -0.96100
Zr601      Zr  0.68700930  0.81326036  0.78296841     1.88900
O602        O  0.64587620  0.75258239  0.72448731    -0.72700
O603        O  0.70909995  0.71976712  0.84096402    -0.52000
O604        O  0.65944973  0.79250668  0.83401750    -0.96700
O605        O  0.65331093  0.86094796  0.76412343    -0.53900
O606        O  0.63369531  0.78925728  0.76631919    -0.73200
C607        C  0.62502808  0.76770894  0.74431017     0.99100
O608        O  0.68630725  0.71366362  0.66983978    -0.62100
O609        O  0.78175896  0.86517144  0.66544117    -0.56900
O610        O  0.71374887  0.76686769  0.65417822    -0.93500
O611        O  0.73314706  0.82034443  0.64908190    -0.92000
O612        O  0.83546806  0.79181597  0.67471278    -0.92300
O613        O  0.81488305  0.72786621  0.67709814    -0.91100
C614        C  0.72294858  0.79264237  0.63645968     1.17900
H615        H  0.81444389  0.83814309  0.72655578     0.33900
H616        H  0.76790035  0.71133663  0.73560733     0.44700
H617        H  0.67509554  0.81368931  0.71089641     0.38300
H618        H  0.73226176  0.80097109  0.83474808     0.34700
H619        H  0.86212780  0.71909846  0.72909805     0.26500
H620        H  0.72142119  0.70347759  0.85539150     0.32500
H621        H  0.63621292  0.80184097  0.83323514     0.38400
H622        H  0.85927805  0.78403318  0.67573808     0.32800
H623        H  0.76965024  0.88544959  0.65756582     0.31700
H624        H  0.70345756  0.88684092  0.67050772     0.33400
H625        H  0.64162050  0.85355145  0.74328980     0.32400
H626        H  0.79139192  0.72264100  0.66989614     0.36400
H627        H  0.70474290  0.69759069  0.66516751     0.29100
H628        H  0.82631302  0.86150155  0.84477531     0.33300
H629        H  0.66022456  0.86027914  0.83039873     0.36200
H630        H  0.80119381  0.87377019  0.67872190     0.28800
H631        H  0.66815419  0.70012597  0.68043463     0.41700
H632        H  0.81515131  0.71327578  0.82213714     0.31700
H633        H  0.84406514  0.71880750  0.76420914     0.39300
H634        H  0.67018626  0.87758027  0.75627029     0.31200
H635        H  0.70477268  0.73898853  0.85594859     0.31300
H636        H  0.78891550  0.87441808  0.84870388     0.31500
C637        C  0.52457556  0.74427092  0.73200152     0.07600
C638        C  0.52137146  0.72462574  0.70324823    -0.12500
C639        C  0.48973841  0.71275489  0.69297002     0.01100
C640        C  0.46083969  0.72065164  0.71126112    -0.11100
C641        C  0.46303812  0.74032203  0.74005168     0.03600
C642        C  0.49517235  0.75243110  0.75082446    -0.10500
H643        H  0.54382324  0.71785913  0.68911386     0.09200
H644        H  0.43631140  0.71148920  0.70280675     0.06700
H645        H  0.49723381  0.76780362  0.77314717     0.06600
C646        C  0.27560039  0.50822045  0.71434074     0.03600
C647        C  0.29307039  0.51113852  0.68391458    -0.12500
C648        C  0.30039348  0.54253679  0.67032159     0.01100
C649        C  0.28924166  0.57129478  0.68631450    -0.11100
C650        C  0.27175402  0.56925492  0.71667649     0.03600
C651        C  0.26476937  0.53749483  0.73115583    -0.10500
H652        H  0.30268137  0.48892043  0.67166807     0.09200
H653        H  0.29559570  0.59557183  0.67565925     0.06700
H654        H  0.25170865  0.53561700  0.75509216     0.06600
C655        C  0.53114502  0.33018905  0.73612732     0.03600
C656        C  0.50102159  0.31898686  0.75251215    -0.12500
C657        C  0.46880309  0.32687324  0.73812074     0.01100
C658        C  0.46727959  0.34541461  0.70833238    -0.11100
C659        C  0.49668238  0.35674441  0.69274528     0.03600
C660        C  0.52837976  0.34885364  0.70633477    -0.10500
H661        H  0.50259889  0.30476842  0.77582853     0.09200
H662        H  0.44280350  0.35176049  0.69735980     0.06700
H663        H  0.55108448  0.35829925  0.69415157     0.06600
C664        C  0.71395597  0.51036038  0.73547696     0.03600
C665        C  0.68629603  0.50964744  0.71366033    -0.12500
C666        C  0.67004358  0.53893495  0.70372052     0.01100
C667        C  0.68040931  0.56961126  0.71670290    -0.11100
C668        C  0.70797589  0.57153970  0.73889589     0.03600
C669        C  0.72527431  0.54161940  0.74843463    -0.10500
H670        H  0.67771903  0.48594784  0.70345596     0.09200
H671        H  0.66779808  0.59230065  0.70831923     0.06700
H672        H  0.74701631  0.54267573  0.76520356     0.06600
C673        C  0.52937129  0.32802293  0.26788727     0.03600
C674        C  0.49808637  0.31956465  0.25167448    -0.12500
C675        C  0.46683911  0.33045810  0.26597747     0.01100
C676        C  0.46757157  0.34948851  0.29521705    -0.11100
C677        C  0.49815582  0.35766217  0.31062081     0.03600
C678        C  0.52869760  0.34658424  0.29747233    -0.10500
H679        H  0.49808039  0.30527503  0.22855797     0.09200
H680        H  0.44407894  0.35865371  0.30593389     0.06700
H681        H  0.55230013  0.35392910  0.30960332     0.06600
C682        C  0.73590651  0.51385384  0.29106579     0.03600
C683        C  0.71521826  0.51324795  0.31934011    -0.12500
C684        C  0.70596434  0.54264283  0.33530175     0.01100
C685        C  0.71876068  0.57324413  0.32450289    -0.11100
C686        C  0.73978808  0.57519030  0.29636756     0.03600
C687        C  0.74845113  0.54521202  0.27899750    -0.10500
H688        H  0.70469296  0.48968877  0.32821300     0.09200
H689        H  0.71062762  0.59592640  0.33696925     0.06700
H690        H  0.76409658  0.54630154  0.25662742     0.06600
C691        C  0.53124352  0.77520221  0.29231305     0.03600
C692        C  0.49885671  0.78931830  0.28529145    -0.12500
C693        C  0.46917543  0.77334854  0.29795807     0.01100
C694        C  0.47245318  0.74402463  0.31700994    -0.11100
C695        C  0.50440503  0.73071692  0.32402874     0.03600
C696        C  0.53339171  0.74608670  0.31151780    -0.10500
H697        H  0.49682049  0.81215963  0.27061862     0.09200
H698        H  0.45006693  0.73194274  0.32729052     0.06700
H699        H  0.55804599  0.73529017  0.31716072     0.06600
C700        C  0.27936281  0.51064553  0.27903746     0.03600
C701        C  0.26099301  0.54024443  0.27075254    -0.12500
C702        C  0.27554939  0.57202493  0.27786088     0.01100
C703        C  0.30742422  0.57355423  0.29301724    -0.11100
C704        C  0.32469180  0.54455000  0.30227775     0.03600
C705        C  0.31111013  0.51334342  0.29448337    -0.10500
H706        H  0.23595079  0.53857686  0.25953777     0.09200
H707        H  0.31827201  0.59767744  0.29938123     0.06700
H708        H  0.32442714  0.49089772  0.30243585     0.06600
C709        C  0.71513096  0.76214806  0.47575562     0.03600
C710        C  0.69627108  0.73286384  0.47927966    -0.12500
C711        C  0.68616181  0.72181621  0.51108327     0.01100
C712        C  0.69555082  0.73922485  0.53989127    -0.11100
C713        C  0.71471250  0.76835155  0.53753353     0.03600
C714        C  0.72465035  0.78034376  0.50512670    -0.10500
H715        H  0.68814184  0.71924998  0.45702466     0.09200
H716        H  0.68717235  0.73022551  0.56441382     0.06700
H717        H  0.73910491  0.80326337  0.50280005     0.06600
C718        C  0.73491681  0.33203149  0.47384954     0.03600
C719        C  0.75198900  0.32089045  0.50384468    -0.12500
C720        C  0.73728356  0.32714608  0.53613829     0.01100
C721        C  0.70663306  0.34416073  0.53769139    -0.11100
C722        C  0.69051144  0.35534815  0.50850226     0.03600
C723        C  0.70422922  0.34899019  0.47686695    -0.10500
H724        H  0.77603102  0.30801768  0.50211013     0.09200
H725        H  0.69552217  0.34978767  0.56204848     0.06700
H726        H  0.69148478  0.35857236  0.45445213     0.06600
C727        C  0.27352082  0.75186401  0.47784388     0.03600
C728        C  0.25648436  0.76094158  0.50796786    -0.12500
C729        C  0.26917776  0.74947084  0.53966262     0.01100
C730        C  0.29774605  0.72891202  0.54058441    -0.11100
C731        C  0.31441278  0.72065189  0.51088597     0.03600
C732        C  0.30263934  0.73242098  0.47989384    -0.10500
H733        H  0.23394693  0.77633475  0.50678028     0.09200
H734        H  0.30715319  0.71921746  0.56451900     0.06700
H735        H  0.31557463  0.72509225  0.45695621     0.06600
C736        C  0.26518256  0.32467347  0.47232633     0.03600
C737        C  0.29350671  0.34545824  0.47157112    -0.12500
C738        C  0.30722018  0.35811362  0.50124742     0.01100
C739        C  0.29327572  0.34959403  0.53236900    -0.11100
C740        C  0.26514024  0.32857209  0.53434279     0.03600
C741        C  0.25057264  0.31585949  0.50400987    -0.10500
H742        H  0.30441260  0.35284334  0.44751202     0.09200
H743        H  0.30437679  0.35973147  0.55527124     0.06700
H744        H  0.22843867  0.29983862  0.50501648     0.06600
O745        O  0.90559081  0.99004398  0.99766021    -0.86000
O746        O  0.09605766  0.99344540  0.01432997    -0.86200
O747        O  0.00512926  0.95284649  0.95305327    -0.87800
O748        O  0.99937857  0.94978092  0.06127824    -0.86600
O749        O  0.99232196  0.98835201  0.10328130    -0.86200
O750        O  0.00919188  0.99406484  0.91273006    -0.87500
O751        O  0.05593516  0.95198095  0.01059329    -0.86000
O752        O  0.94751100  0.95044077  0.00019051    -0.85600
Zr753      Zr  0.00108837  0.97846069  0.00772108     2.84300
O754        O  0.03123652  0.01077495  0.04598310    -1.07600
O755        O  0.96967633  0.01170335  0.97096251    -1.08300
C756        C  0.91639126  0.95972876  0.99715446     1.07100
C757        C  0.08671100  0.96272280  0.01196697     1.07100
C758        C  0.00765617  0.96325776  0.92233038     1.10000
C759        C  0.99614515  0.95833296  0.09238246     1.07800
H760        H  0.05306847  0.99968421  0.96482807     0.33400
O761        O  0.03763603  0.01302913  0.97787975    -1.28500
H762        H  0.94765152  0.99446494  0.05161189     0.33000
O763        O  0.96278208  0.00916132  0.03938428    -1.30200
O764        O  0.09388089  0.10016489  0.01853243    -0.86000
O765        O  0.90472874  0.09722808  0.00090905    -0.87500
O766        O  0.06379805  0.04655879  0.92077626    -0.86100
O767        O  0.04415522  0.04043602  0.11036364    -0.86100
O768        O  0.93603020  0.04267021  0.09774172    -0.85800
O769        O  0.95454485  0.04504533  0.90839704    -0.85600
O770        O  0.00269848  0.14165747  0.95772312    -0.86000
O771        O  0.99453842  0.13764616  0.06484506    -0.85500
O772        O  0.00992297  0.10200061  0.91678289    -0.86500
O773        O  0.98937168  0.09584242  0.10445234    -0.85700
O774        O  0.10076167  0.04818186  0.96573915    -0.86100
O775        O  0.91047511  0.04362772  0.94597297    -0.85800
O776        O  0.89895647  0.04177789  0.05294519    -0.85500
O777        O  0.08854311  0.04017605  0.07308019    -0.85900
O778        O  0.05269969  0.14014209  0.01246615    -0.86200
O779        O  0.94455625  0.13858801  0.00714638    -0.87500
Zr780      Zr  0.06702225  0.04620653  0.01618577     2.83100
Zr781      Zr  0.93271228  0.04378577  0.00252623     2.83500
Zr782      Zr  0.00628639  0.04696572  0.94171729     2.84100
Zr783      Zr  0.99319928  0.04283574  0.07647756     2.83400
Zr784      Zr  0.99887183  0.11163250  0.01053459     2.84200
O785        O  0.96187105  0.07728089  0.04059133    -1.08100
O786        O  0.03672648  0.08029101  0.97912274    -1.07600
C787        C  0.08371240  0.13057146  0.01535298     1.07100
C788        C  0.91398319  0.12799946  0.00332719     1.09700
C789        C  0.09376272  0.04690146  0.93400590     1.07300
C790        C  0.07582574  0.03840555  0.10296793     1.07600
C791        C  0.90604625  0.04225339  0.08468781     1.07200
C792        C  0.92277626  0.04381515  0.91593677     1.06800
C793        C  0.00756561  0.13238150  0.92707687     1.07200
C794        C  0.99101317  0.12670721  0.09524326     1.06700
H795        H  0.95527508  0.09333635  0.95708385     0.33400
O796        O  0.96830883  0.07929605  0.97220756    -1.29200
H797        H  0.04315653  0.09213774  0.06360271     0.33400
O798        O  0.03037342  0.07859547  0.04795683    -1.30600
O799        O  0.49542311  0.63050676  0.55421861    -0.86000
O800        O  0.49599003  0.44148250  0.55390975    -0.86200
O801        O  0.43480344  0.53956750  0.58667820    -0.87800
O802        O  0.54250262  0.53628420  0.60210217    -0.86600
O803        O  0.58781464  0.53418239  0.56603068    -0.86200
O804        O  0.39849873  0.53902611  0.54118567    -0.87500
O805        O  0.48934231  0.48179710  0.59429890    -0.86000
O806        O  0.48814682  0.58939220  0.59418770    -0.85600
Zr807      Zr  0.49245612  0.53588147  0.56705357     2.84300
O808        O  0.52991869  0.50154635  0.53827755    -1.07600
O809        O  0.46364354  0.57039229  0.52960654    -1.08300
C810        C  0.49021310  0.62013717  0.58461426     1.07100
C811        C  0.49212786  0.45125703  0.58457530     1.07100
C812        C  0.40511394  0.54046986  0.57296945     1.10000
C813        C  0.57441507  0.53514596  0.59562594     1.07800
H814        H  0.44589860  0.48931721  0.54238251     0.33400
O815        O  0.46172414  0.50290882  0.52981116    -1.28500
H816        H  0.54388674  0.58300682  0.55443573     0.33000
O817        O  0.53134400  0.56944781  0.53862727    -1.30200
O818        O  0.50286391  0.44301412  0.44571360    -0.86000
O819        O  0.51005784  0.63092307  0.44669547    -0.87500
O820        O  0.40440715  0.48491227  0.49059511    -0.86100
O821        O  0.59382781  0.48083049  0.51184963    -0.86100
O822        O  0.59718726  0.58755927  0.51193837    -0.85800
O823        O  0.40724088  0.59226268  0.49452144    -0.85600
O824        O  0.45801066  0.53892791  0.39788441    -0.86000
O825        O  0.56545240  0.53799339  0.41267391    -0.85500
O826        O  0.41289446  0.54114045  0.43418989    -0.86500
O827        O  0.60167322  0.53754325  0.45821493    -0.85700
O828        O  0.44422048  0.44328503  0.49514334    -0.86100
O829        O  0.44879541  0.63227981  0.49809467    -0.85800
O830        O  0.55710648  0.62891699  0.50821039    -0.85500
O831        O  0.55276674  0.44076410  0.50493659    -0.85900
O832        O  0.50783560  0.48417961  0.40536169    -0.86200
O833        O  0.51159594  0.59101440  0.40532375    -0.87500
Zr834      Zr  0.49927407  0.46960776  0.49983933     2.83100
Zr835      Zr  0.50226564  0.60336133  0.50048459     2.83500
Zr836      Zr  0.43345997  0.53786381  0.49166288     2.84100
Zr837      Zr  0.56755211  0.53509576  0.50843814     2.83400
Zr838      Zr  0.50809931  0.53736707  0.43311879     2.84200
O839        O  0.53937294  0.56999743  0.47042609    -1.08100
O840        O  0.46960489  0.50336128  0.46163851    -1.07600
C841        C  0.50514013  0.45354436  0.41504714     1.07100
C842        C  0.51202420  0.62139269  0.41575796     1.09700
C843        C  0.41352759  0.45410050  0.49281168     1.07300
C844        C  0.58363214  0.45032759  0.50953145     1.07600
C845        C  0.58777648  0.61831693  0.51143205     1.07200
C846        C  0.41763323  0.62266249  0.49744374     1.06800
C847        C  0.42618429  0.54110153  0.40450951     1.07200
C848        C  0.59514850  0.53836994  0.42634501     1.06700
H849        H  0.45868320  0.58658041  0.44681918     0.33400
O850        O  0.47092863  0.57194283  0.46206480    -1.29200
H851        H  0.55330531  0.48837102  0.45734812     0.33400
O852        O  0.53794022  0.50227677  0.46986420    -1.30600
C853        C  0.33080828  0.41367405  0.51404655    -0.12900
C854        C  0.33487657  0.38220012  0.49946155     0.09300
C855        C  0.36477054  0.37433619  0.48229255    -0.12900
C856        C  0.39072664  0.39780743  0.48009277    -0.12900
C857        C  0.38646405  0.42945745  0.49434007     0.09300
C858        C  0.35641936  0.43730098  0.51131765    -0.12900
H859        H  0.30763723  0.42004795  0.52709777     0.13300
H860        H  0.36801673  0.35003189  0.47088376     0.13300
H861        H  0.41386671  0.39146328  0.46698891     0.13300
H862        H  0.35297964  0.46151403  0.52288410     0.13300
C863        C  0.37383987  0.70596409  0.49821888    -0.12900
C864        C  0.34219284  0.69681828  0.51124402     0.09300
C865        C  0.33559791  0.66365826  0.52038618    -0.12900
C866        C  0.36018003  0.63942640  0.51547466    -0.12900
C867        C  0.39174232  0.64827749  0.50177364     0.09300
C868        C  0.39871609  0.68181342  0.49383215    -0.12900
H869        H  0.37890837  0.73159121  0.49080835     0.13300
H870        H  0.31098948  0.65637925  0.53005445     0.13300
H871        H  0.35450647  0.61379993  0.52243175     0.13300
H872        H  0.42302017  0.68918833  0.48352742     0.13300
C873        C  0.63083714  0.37024482  0.49565337    -0.12900
C874        C  0.66173968  0.37776436  0.51136092     0.09300
C875        C  0.66625387  0.40812648  0.52810794    -0.12900
C876        C  0.64040767  0.43150692  0.52811836    -0.12900
C877        C  0.60962187  0.42453227  0.51172745     0.09300
C878        C  0.60465802  0.39349275  0.49609227    -0.12900
H879        H  0.62729948  0.34675813  0.48264430     0.13300
H880        H  0.69023670  0.41416575  0.54010671     0.13300
H881        H  0.64467760  0.45520542  0.54052167     0.13300
H882        H  0.58109914  0.38773483  0.48318262     0.13300
C883        C  0.67064166  0.66279144  0.50095846    -0.12900
C884        C  0.66246148  0.69413933  0.51398069     0.09300
C885        C  0.63056770  0.69988431  0.52813796    -0.12900
C886        C  0.60638286  0.67473999  0.52810101    -0.12900
C887        C  0.61413314  0.64355463  0.51427463     0.09300
C888        C  0.64660229  0.63737246  0.50143237    -0.12900
H889        H  0.69531806  0.65827994  0.49000099     0.13300
H890        H  0.62405775  0.72418807  0.53808960     0.13300
H891        H  0.58150331  0.67980387  0.53836121     0.13300
H892        H  0.65288755  0.61341766  0.49054878     0.13300
C893        C  0.38268260  0.52746300  0.32114547    -0.12900
C894        C  0.35342905  0.54680077  0.32564193     0.09300
C895        C  0.34973000  0.56598643  0.35486950    -0.12900
C896        C  0.37418478  0.56479519  0.38000269    -0.12900
C897        C  0.40276667  0.54453109  0.37622250     0.09300
C898        C  0.40755988  0.52662168  0.34630164    -0.12900
H899        H  0.38575929  0.51246006  0.29870342     0.13300
H900        H  0.32707269  0.58063446  0.35904551     0.13300
H901        H  0.37036442  0.57908792  0.40282024     0.13300
H902        H  0.42962479  0.51089046  0.34312529     0.13300
C903        C  0.52944770  0.70361313  0.37446553    -0.12900
C904        C  0.50802223  0.70168181  0.34617228     0.09300
C905        C  0.49011740  0.67223550  0.33938395    -0.12900
C906        C  0.49305068  0.64506425  0.36125169    -0.12900
C907        C  0.51329587  0.64759414  0.39032573     0.09300
C908        C  0.53188330  0.67672733  0.39662305    -0.12900
H909        H  0.54342638  0.72629499  0.37991370     0.13300
H910        H  0.47374934  0.67045723  0.31741079     0.13300
H911        H  0.47833389  0.62270934  0.35635147     0.13300
H912        H  0.54764935  0.67887265  0.41900671     0.13300
C913        C  0.68205031  0.55484139  0.39175235    -0.12900
C914        C  0.67830481  0.54164955  0.35932387     0.09300
C915        C  0.64735772  0.52791097  0.34890234    -0.12900
C916        C  0.62023648  0.52699162  0.37083436    -0.12900
C917        C  0.62387525  0.53962927  0.40353790     0.09300
C918        C  0.65488241  0.55356871  0.41400583    -0.12900
H919        H  0.70589726  0.56576076  0.39977787     0.13300
H920        H  0.64416821  0.51814834  0.32361388     0.13300
H921        H  0.59654431  0.51610417  0.36230953     0.13300
H922        H  0.65792234  0.56378131  0.43911354     0.13300
C923        C  0.51451380  0.37295938  0.36884138    -0.12900
C924        C  0.49852150  0.38119290  0.33828740     0.09300
C925        C  0.48460245  0.41294742  0.33311025    -0.12900
C926        C  0.48720965  0.43670891  0.35819629    -0.12900
C927        C  0.50335766  0.42865890  0.38875787     0.09300
C928        C  0.51661305  0.39660798  0.39426546    -0.12900
H929        H  0.52540019  0.34840705  0.37282660     0.13300
H930        H  0.47247216  0.41951787  0.30936382     0.13300
H931        H  0.47638324  0.46124284  0.35385484     0.13300
H932        H  0.52904215  0.39014185  0.41788101     0.13300
C933        C  0.61326867  0.55349181  0.68021223    -0.12900
C934        C  0.64459166  0.53741980  0.67689992     0.09300
C935        C  0.65221493  0.51998796  0.64732355    -0.12900
C936        C  0.62897591  0.51890529  0.62107996    -0.12900
C937        C  0.59774725  0.53511828  0.62414164     0.09300
C938        C  0.58972081  0.55211651  0.65393619    -0.12900
H939        H  0.60712760  0.56695070  0.70301876     0.13300
H940        H  0.67647389  0.50772507  0.64429312     0.13300
H941        H  0.63546437  0.50548954  0.59832760     0.13300
H942        H  0.56570710  0.56493469  0.65652045     0.13300
C943        C  0.51258067  0.37373003  0.63443010    -0.12900
C944        C  0.49397777  0.37946861  0.66386123     0.09300
C945        C  0.47347172  0.40789325  0.66637988    -0.12900
C946        C  0.47231262  0.43094612  0.64010757    -0.12900
C947        C  0.49134027  0.42561967  0.61086836     0.09300
C948        C  0.51103775  0.39662554  0.60784374    -0.12900
H949        H  0.52841590  0.35176974  0.63222080     0.13300
H950        H  0.45915821  0.41273171  0.68911338     0.13300
H951        H  0.45686081  0.45312098  0.64277255     0.13300
H952        H  0.52608042  0.39229251  0.58547905     0.13300
C953        C  0.38067462  0.56221768  0.62532492    -0.12900
C954        C  0.37660953  0.54366922  0.59573657     0.09300
C955        C  0.34584199  0.52735874  0.58893812    -0.12900
C956        C  0.32001892  0.52791153  0.61276469    -0.12900
C957        C  0.32472523  0.54544905  0.64292287     0.09300
C958        C  0.35476137  0.56327683  0.64871349    -0.12900
H959        H  0.40415535  0.57531139  0.63065284     0.13300
H960        H  0.34242411  0.51302058  0.56605788     0.13300
H961        H  0.29685782  0.51403068  0.60819289     0.13300
H962        H  0.35878756  0.57665173  0.67210554     0.13300
C963        C  0.50362707  0.69875660  0.63372644    -0.12900
C964        C  0.48714434  0.69059422  0.66394594     0.09300
C965        C  0.46960251  0.66027500  0.66707684    -0.12900
C966        C  0.46970605  0.63767124  0.64068534    -0.12900
C967        C  0.48717321  0.64529117  0.61083772     0.09300
C968        C  0.50348148  0.67625898  0.60716484    -0.12900
H969        H  0.51704963  0.72224908  0.63095755     0.13300
H970        H  0.45692909  0.65357141  0.69038067     0.13300
H971        H  0.45674915  0.61397785  0.64387487     0.13300
H972        H  0.51720061  0.68251733  0.58433688     0.13300
C973        C  0.72300449  0.78996779  0.59980052    -0.12800
C974        C  0.72199581  0.78442236  0.56960604    -0.14300
C975        C  0.72017298  0.63524802  0.75334454    -0.12800
C976        C  0.71764072  0.60513626  0.74943374    -0.14300
C977        C  0.58905205  0.76038294  0.74222500    -0.12800
C978        C  0.55879009  0.75479958  0.74057051    -0.14300
C979        C  0.75543915  0.31622247  0.59972728    -0.12800
C980        C  0.75180845  0.31855332  0.56910961    -0.14300
C981        C  0.59635607  0.32291948  0.75217911    -0.12800
C982        C  0.56565505  0.32432943  0.74833442    -0.14300
C983        C  0.73489441  0.44790711  0.74267443    -0.12800
C984        C  0.72924770  0.47785641  0.74218627    -0.14300
C985        C  0.24904701  0.76044533  0.60219990    -0.12800
C986        C  0.25453916  0.75761889  0.57217420    -0.14300
C987        C  0.40080587  0.74986197  0.76159473    -0.12800
C988        C  0.43099665  0.74750027  0.75624099    -0.14300
C989        C  0.26099874  0.63048452  0.73799483    -0.12800
C990        C  0.26366987  0.60092244  0.73207474    -0.14300
C991        C  0.25273737  0.32196019  0.56833785    -0.12800
C992        C  0.24893680  0.32086826  0.59884973    -0.14300
C993        C  0.26962399  0.44486851  0.73333805    -0.12800
C994        C  0.27101881  0.47464340  0.72753617    -0.14300
C995        C  0.43598511  0.31806710  0.75225536    -0.12800
C996        C  0.40546807  0.31558726  0.75606348    -0.14300
C997        C  0.13039318  0.20914802  0.99222011    -0.12900
C998        C  0.16178768  0.20290278  0.00752801     0.09300
C999        C  0.16726994  0.17335088  0.02586148    -0.12900
C1000       C  0.14149763  0.15006031  0.02896535    -0.12900
C1001       C  0.10988751  0.15619834  0.01392079     0.09300
C1002       C  0.10433533  0.18590789  0.99562646    -0.12900
H1003       H  0.12606388  0.23200126  0.97804108     0.13300
H1004       H  0.19163126  0.16828025  0.03759301     0.13300
H1005       H  0.14629866  0.12725007  0.04306971     0.13300
H1006       H  0.08019588  0.19077020  0.98338668     0.13300
C1007       C  0.24433817  0.26245955  0.93840933    -0.12800
C1008       C  0.24811873  0.26342224  0.90780803    -0.14300
C1009       C  0.72582849  0.77543431  0.41086721    -0.12800
C1010       C  0.72267859  0.77231106  0.44126945    -0.14300
C1011       C  0.59405697  0.79289010  0.27827860    -0.12800
C1012       C  0.56366619  0.78899937  0.28183525    -0.14300
C1013       C  0.75209265  0.63934790  0.28416882    -0.12800
C1014       C  0.74939024  0.60902095  0.28622304    -0.14300
C1015       C  0.75042130  0.32740823  0.40854216    -0.12800
C1016       C  0.74710575  0.32792071  0.43923679    -0.14300
C1017       C  0.74085427  0.45130754  0.26995763    -0.12800
C1018       C  0.74130386  0.48125700  0.27566635    -0.14300
C1019       C  0.56326852  0.32036103  0.25552419    -0.12800
C1020       C  0.59399635  0.31884500  0.25228913    -0.14300
C1021       C  0.25997268  0.76359775  0.41340397    -0.12800
C1022       C  0.26255232  0.76043342  0.44385115    -0.14300
C1023       C  0.25340514  0.63414818  0.27227342    -0.12800
C1024       C  0.25911853  0.60422581  0.27255821    -0.14300
C1025       C  0.43473384  0.78568870  0.29313021    -0.12800
C1026       C  0.40414184  0.78986336  0.29252671    -0.14300
C1027       C  0.15341944  0.01082585  0.14955643    -0.12900
C1028       C  0.14948892  0.02723803  0.18043749     0.09300
C1029       C  0.11960668  0.04490319  0.18708394    -0.12900
C1030       C  0.09454149  0.04746534  0.16227232    -0.12900
C1031       C  0.09970766  0.03294129  0.13058535     0.09300
C1032       C  0.12875392  0.01379614  0.12472770    -0.12900
H1033       H  0.17651763  0.99742012  0.14384084     0.13300
H1034       H  0.11635944  0.05770898  0.21086181     0.13300
H1035       H  0.07205434  0.06212388  0.16717615     0.13300
H1036       H  0.13280731  0.00188982  0.10057868     0.13300
C1037       C  0.24801263  0.97235026  0.22863848    -0.12800
C1038       C  0.25402960  0.94246691  0.22887477    -0.14300
C1039       C  0.25246661  0.31475395  0.43934140    -0.12800
C1040       C  0.24897310  0.31210410  0.40890895    -0.14300
C1041       C  0.40215051  0.32353081  0.24928746    -0.12800
C1042       C  0.43293717  0.32422117  0.25251535    -0.14300
C1043       C  0.26274529  0.44657983  0.27286918    -0.12800
C1044       C  0.26685435  0.47671742  0.27426326    -0.14300
C1045       C  0.25090480  0.26298348  0.09894959    -0.12800
C1046       C  0.24769593  0.26312671  0.06829557    -0.14300
C1047       C  0.23721364  0.13010114  0.23187175    -0.12800
C1048       C  0.23457483  0.09975338  0.23010089    -0.14300
C1049       C  0.97444238  0.16597941  0.17866199    -0.12900
C1050       C  0.99201521  0.19618478  0.17494170     0.09300
C1051       C  0.00787097  0.20434321  0.14446580    -0.12900
C1052       C  0.00656421  0.18203206  0.11784039    -0.12900
C1053       C  0.98975138  0.15135629  0.12185795     0.09300
C1054       C  0.97341402  0.14355517  0.15223901    -0.12900
H1055       H  0.96226548  0.15946237  0.20228678     0.13300
H1056       H  0.02136121  0.22777409  0.14145866     0.13300
H1057       H  0.01954608  0.18826999  0.09457937     0.13300
H1058       H  0.96020255  0.12001916  0.15565917     0.13300
C1059       C  0.93300304  0.25564269  0.26230324    -0.12800
C1060       C  0.90223583  0.25725065  0.26486078    -0.14300
C1061       C  0.06321127  0.25638225  0.25446520    -0.12800
C1062       C  0.09405552  0.25831868  0.25630749    -0.14300
C1063       C  0.75431747  0.97546697  0.22737016    -0.12800
C1064       C  0.75169677  0.94513948  0.22910213    -0.14300
C1065       C  0.75761981  0.13323528  0.24069937    -0.12800
C1066       C  0.75834616  0.10322771  0.23582962    -0.14300
C1067       C  0.85577342  0.05659965  0.16294819    -0.12900
C1068       C  0.82430224  0.04333184  0.15358003     0.09300
C1069       C  0.81930001  0.02999773  0.12137892    -0.12900
C1070       C  0.84592444  0.02996033  0.09849402    -0.12900
C1071       C  0.87771585  0.04272644  0.10808189     0.09300
C1072       C  0.88242735  0.05616088  0.14037278    -0.12900
H1073       H  0.85983335  0.06666495  0.18799269     0.13300
H1074       H  0.79495239  0.01962492  0.11413470     0.13300
H1075       H  0.84188467  0.01943077  0.07365929     0.13300
H1076       H  0.90665925  0.06643417  0.14814110     0.13300
C1077       C  0.06653836  0.79288117  0.22097039    -0.12800
C1078       C  0.09727621  0.78945240  0.22274368    -0.14300
C1079       C  0.90538282  0.78844324  0.22264633    -0.12800
C1080       C  0.93609358  0.79191266  0.22063043    -0.14300
C1081       C  0.98141841  0.90725371  0.17091794    -0.12900
C1082       C  0.00074001  0.87886514  0.16365299     0.09300
C1083       C  0.01873997  0.87695199  0.13336128    -0.12900
C1084       C  0.01711744  0.90299164  0.11022031    -0.12900
C1085       C  0.99772014  0.93140906  0.11725747     0.09300
C1086       C  0.98018137  0.93366836  0.14788251    -0.12900
H1087       H  0.96733475  0.90885106  0.19427082     0.13300
H1088       H  0.03341225  0.85494350  0.12729810     0.13300
H1089       H  0.03112490  0.90094593  0.08684850     0.13300
H1090       H  0.96505139  0.95544853  0.15361923     0.13300
C1091       C  0.23353301  0.97501262  0.77959118    -0.12800
C1092       C  0.23497740  0.94543797  0.77344621    -0.14300
C1093       C  0.23448951  0.13093264  0.77329976    -0.12800
C1094       C  0.23300205  0.10129327  0.77955798    -0.14300
C1095       C  0.14480293  0.02259532  0.85900554    -0.12900
C1096       C  0.17612551  0.03743541  0.86637750     0.09300
C1097       C  0.18076527  0.05510491  0.89646071    -0.12900
C1098       C  0.15393233  0.05802168  0.91900455    -0.12900
C1099       C  0.12223136  0.04405233  0.91097333     0.09300
C1100       C  0.11794863  0.02605429  0.88105016    -0.12900
H1101       H  0.14079084  0.00937172  0.83552073     0.13300
H1102       H  0.20483501  0.06694992  0.90211798     0.13300
H1103       H  0.15763721  0.07182090  0.94218210     0.13300
H1104       H  0.09384309  0.01459045  0.87471910     0.13300
C1105       C  0.93662048  0.81764834  0.77487785    -0.12800
C1106       C  0.90641139  0.81299773  0.77141353    -0.14300
C1107       C  0.06449918  0.81980990  0.76354959    -0.12800
C1108       C  0.09447823  0.81648705  0.75770947    -0.14300
C1109       C  0.99274121  0.88208467  0.87794379    -0.12900
C1110       C  0.00672811  0.88892508  0.84625365     0.09300
C1111       C  0.02173434  0.92002298  0.83961826    -0.12900
C1112       C  0.02219740  0.94444928  0.86444639    -0.12900
C1113       C  0.00812169  0.93766526  0.89623739     0.09300
C1114       C  0.99362004  0.90624620  0.90289470    -0.12900
H1115       H  0.98112672  0.85808114  0.88328347     0.13300
H1116       H  0.03241130  0.92554786  0.81504358     0.13300
H1117       H  0.03356394  0.96850521  0.85884606     0.13300
H1118       H  0.98233175  0.90056204  0.92715750     0.13300
C1119       C  0.93586294  0.25469413  0.76182561    -0.12800
C1120       C  0.90518534  0.25705627  0.75841886    -0.14300
C1121       C  0.06526107  0.25503888  0.75132881    -0.12800
C1122       C  0.09576567  0.25638319  0.74668864    -0.14300
C1123       C  0.99024799  0.20977122  0.87607428    -0.12900
C1124       C  0.00949463  0.20316086  0.84719207     0.09300
C1125       C  0.03033914  0.17484347  0.84622578    -0.12900
C1126       C  0.03068371  0.15251453  0.87307611    -0.12900
C1127       C  0.01030358  0.15826101  0.90128351     0.09300
C1128       C  0.99082239  0.18745241  0.90320780    -0.12900
H1129       H  0.97424046  0.23169241  0.87723484     0.13300
H1130       H  0.04516144  0.16914372  0.82404050     0.13300
H1131       H  0.04613838  0.13022873  0.87139488     0.13300
H1132       H  0.97490629  0.19215401  0.92488173     0.13300
C1133       C  0.77213147  0.94314280  0.75663598    -0.12800
C1134       C  0.77566961  0.97305828  0.76124753    -0.14300
C1135       C  0.76920311  0.10034648  0.77067298    -0.12800
C1136       C  0.76497502  0.13045840  0.76911563    -0.14300
C1137       C  0.88213165  0.02558011  0.83180092    -0.12900
C1138       C  0.84897144  0.03635876  0.83787281     0.09300
C1139       C  0.84033128  0.04979547  0.86917742    -0.12900
C1140       C  0.86465928  0.05266381  0.89430521    -0.12900
C1141       C  0.89804135  0.04218412  0.88842959     0.09300
C1142       C  0.90675042  0.02871888  0.85699057    -0.12900
H1143       H  0.88899708  0.01543371  0.80748502     0.13300
H1144       H  0.81473339  0.05826753  0.87402205     0.13300
H1145       H  0.85734826  0.06325040  0.91830490     0.13300
H1146       H  0.93231373  0.02021565  0.85212242     0.13300
C1147       C  0.24012180  0.81817833  0.06553593    -0.12800
C1148       C  0.24198885  0.81312077  0.09567337    -0.14300
C1149       C  0.24816059  0.82792686  0.93818570    -0.12800
C1150       C  0.25298424  0.82462770  0.90817321    -0.14300
C1151       C  0.13459746  0.88246841  0.01959097    -0.12900
C1152       C  0.16461088  0.89089094  0.00267599     0.09300
C1153       C  0.16874632  0.92272737  0.98850330    -0.12900
C1154       C  0.14331876  0.94634699  0.99195887    -0.12900
C1155       C  0.11344987  0.93806760  0.00920982     0.09300
C1156       C  0.10893745  0.90592698  0.02261359    -0.12900
H1157       H  0.13120668  0.85783513  0.03059131     0.13300
H1158       H  0.19195183  0.92950677  0.97560293     0.13300
H1159       H  0.14684539  0.97096513  0.98094892     0.13300
H1160       H  0.08589913  0.89920826  0.03584975     0.13300
C1161       C  0.75220483  0.25902038  0.06995677    -0.12800
C1162       C  0.74953772  0.26112025  0.10069434    -0.14300
C1163       C  0.74586653  0.25568436  0.93942075    -0.12800
C1164       C  0.74229018  0.25618295  0.90865929    -0.14300
C1165       C  0.86458134  0.20629261  0.01859848    -0.12900
C1166       C  0.83407612  0.19840245  0.00225809     0.09300
C1167       C  0.83045233  0.16811255  0.98512355    -0.12900
C1168       C  0.85690043  0.14544536  0.98490315    -0.12900
C1169       C  0.88727334  0.15292833  0.00173795     0.09300
C1170       C  0.89129893  0.18370367  0.01807496    -0.12900
H1171       H  0.86759414  0.22978444  0.03172165     0.13300
H1172       H  0.80687734  0.16175242  0.97252105     0.13300
H1173       H  0.85350071  0.12196815  0.97182690     0.13300
H1174       H  0.91463693  0.18983523  0.03121104     0.13300
C1175       C  0.77548816  0.80389683  0.09399572    -0.12800
C1176       C  0.78066153  0.80525487  0.06378806    -0.14300
C1177       C  0.78556971  0.78328132  0.90644783    -0.12800
C1178       C  0.78780308  0.78853628  0.93657252    -0.14300
C1179       C  0.83515117  0.91178126  0.00460112    -0.12900
C1180       C  0.84512062  0.88080577  0.99184780     0.09300
C1181       C  0.87762109  0.87652394  0.97856537    -0.12900
C1182       C  0.90068380  0.90267400  0.97951309    -0.12900
C1183       C  0.89121686  0.93339982  0.99338147     0.09300
C1184       C  0.85808599  0.93814678  0.00513328    -0.12900
H1185       H  0.80994825  0.91523769  0.01476088     0.13300
H1186       H  0.88552239  0.85257192  0.96875715     0.13300
H1187       H  0.92606019  0.89870985  0.96998461     0.13300
H1188       H  0.85038688  0.96172253  0.01595250     0.13300
loop_ 
_geom_bond_atom_site_label_1 
_geom_bond_atom_site_label_2 
_geom_bond_distance 
_geom_bond_site_symmetry_2 
_ccdc_geom_bond_type 
C1            C2   1.392       .  A
C1            C6   1.422       .  A
C1         C1176   1.452       .  S
C2            C3   1.392   1_554  A
C2            H7   1.086       .  S
C3            C4   1.389       .  A
C3         C1180   1.453       .  S
C4            C5   1.392       .  A
C4            H8   1.086       .  S
C5            C6   1.422   1_556  A
C5         C1178   1.451       .  S
C6            H9   1.083       .  S
C10          C11   1.394       .  A
C10          C15   1.434       .  A
C10        C1161   1.468       .  S
C11          C12   1.392       .  A
C11          H16   1.086       .  S
C12          C13   1.389   1_554  A
C12        C1166   1.455       .  S
C13          C14   1.389       .  A
C13          H17   1.086       .  S
C14          C15   1.433   1_556  A
C14        C1163   1.466       .  S
C15          H18   1.082       .  S
C19          C20   1.388       .  A
C19          C24   1.417       .  A
C19        C1147   1.444       .  S
C20          C21   1.389       .  A
C20          H25   1.086       .  S
C21          C22   1.393   1_554  A
C21        C1152   1.456       .  S
C22          C23   1.396       .  A
C22          H26   1.085       .  S
C23          C24   1.418   1_556  A
C23        C1149   1.448       .  S
C24          H27   1.083       .  S
C28          C29   1.424       .  A
C28          C33   1.389       .  A
C28        C1135   1.455       .  S
C29          C30   1.426       .  A
C29          H34   1.083       .  S
C30          C31   1.398       .  A
C30        C1134   1.460   1_545  S
C31          C32   1.393       .  A
C31          H35   1.085   1_545  S
C32          C33   1.390       .  A
C32        C1138   1.456       .  S
C33          H36   1.086       .  S
C37          C38   1.396       .  A
C37          C42   1.426   1_655  A
C37        C1119   1.461       .  S
C38          C39   1.396   1_655  A
C38          H43   1.085       .  S
C39          C40   1.391       .  A
C39        C1124   1.464       .  S
C40          C41   1.390       .  A
C40          H44   1.086       .  S
C41          C42   1.424       .  A
C41        C1121   1.456       .  S
C42          H45   1.083   1_455  S
C46          C47   1.418   1_655  A
C46          C51   1.393       .  A
C46        C1105   1.448       .  S
C47          C48   1.418       .  A
C47          H52   1.083   1_455  S
C48          C49   1.394       .  A
C48        C1107   1.449       .  S
C49          C50   1.392       .  A
C49          H53   1.086       .  S
C50          C51   1.393   1_455  A
C50        C1110   1.458       .  S
C51          H54   1.086       .  S
C55          C56   1.417       .  A
C55          C60   1.393       .  A
C55        C1094   1.446       .  S
C56          C57   1.417       .  A
C56          H61   1.083       .  S
C57          C58   1.393       .  A
C57        C1091   1.446   1_545  S
C58          C59   1.393       .  A
C58          H62   1.086   1_545  S
C59          C60   1.392       .  A
C59        C1096   1.456       .  S
C60          H63   1.086       .  S
C64          C65   1.393       .  A
C64          C69   1.429   1_655  A
C64        C1080   1.461       .  S
C65          C66   1.391   1_655  A
C65          H70   1.086       .  S
C66          C67   1.392       .  A
C66        C1082   1.458       .  S
C67          C68   1.392       .  A
C67          H71   1.086       .  S
C68          C69   1.429       .  A
C68        C1077   1.461       .  S
C69          H72   1.083       .  S
C73          C74   1.389       .  A
C73          C78   1.427       .  A
C73        C1066   1.455       .  S
C74          C75   1.388       .  A
C74          H79   1.086       .  S
C75          C76   1.389       .  A
C75        C1068   1.450       .  S
C76          C77   1.393       .  A
C76          H80   1.086   1_545  S
C77          C78   1.427       .  A
C77        C1063   1.458   1_545  S
C78          H81   1.083       .  S
C82          C83   1.388       .  A
C82          C87   1.428       .  A
C82        C1059   1.456       .  S
C83          C84   1.386       .  A
C83          H88   1.087       .  S
C84          C85   1.390   1_655  A
C84        C1050   1.450       .  S
C85          C86   1.392       .  A
C85          H89   1.086       .  S
C86          C87   1.429   1_455  A
C86        C1061   1.459       .  S
C87          H90   1.083       .  S
Zr91         O92   2.440       .  S
Zr91         O93   2.494       .  S
Zr91         O94   2.510       .  S
Zr91         O97   2.497       .  S
Zr91         O99   2.386       .  S
Zr91        O100   2.393       .  S
Zr91        O101   2.421       .  S
Zr91        O102   2.413       .  S
O92         H148   0.990       .  S
O92         H156   0.990       .  S
O93         C113   1.294       .  A
O94         C115   1.299       .  A
O95        Zr105   2.415       .  S
O95         C114   1.279       .  A
O96        Zr104   2.431       .  S
O96         C115   1.282       .  A
O97         C114   1.297       .  A
O98        Zr106   2.406       .  S
O98         C113   1.276       .  A
O99        Zr104   2.401       .  S
O99        Zr106   2.388       .  S
O100       Zr105   2.402       .  S
O100       Zr106   2.378       .  S
O100        H135   0.965       .  S
O101       Zr104   2.402       .  S
O101       Zr121   2.377       .  S
O101        H138   0.963       .  S
O102       Zr105   2.393       .  S
O102       Zr121   2.398       .  S
Zr103       O128   2.439       .  S
Zr103       O122   2.507       .  S
Zr103       O130   2.507       .  S
Zr103       O118   2.511       .  S
Zr103       O109   2.410       .  S
Zr103       O110   2.425       .  S
Zr103       O111   2.385       .  S
Zr103       O112   2.391       .  S
Zr104       O123   2.436       .  S
Zr104       O116   2.436       .  S
Zr104       O117   2.417       .  S
Zr104       O110   2.404       .  S
Zr104       O111   2.405       .  S
Zr105       O107   2.435       .  S
Zr105       O129   2.443       .  S
Zr105       O131   2.419       .  S
Zr105       O109   2.384       .  S
Zr105       O112   2.403       .  S
Zr106       O132   2.436       .  S
Zr106       O133   2.435       .  S
Zr106       O108   2.436       .  S
Zr106       O109   2.384       .  S
Zr106       O110   2.385       .  S
O107        H144   0.990       .  S
O108        H139   0.990       .  S
O108        H153   0.990       .  S
O110        H136   0.964       .  S
O111       Zr121   2.384       .  S
O112       Zr121   2.384       .  S
O112        H137   0.966       .  S
C113       C1043   1.455       .  S
C114       C1040   1.455       .  S
C115       C1041   1.459       .  S
O116        H152   0.990       .  S
O117        C119   1.280       .  A
O118        C119   1.299       .  A
C119       C1045   1.457       .  S
O120       Zr121   2.438       .  S
O120        H149   0.990       .  S
Zr121       O124   2.440       .  S
Zr121       O125   2.437       .  S
Zr121       O126   2.404       .  S
O122        C127   1.297       .  A
O123        H140   0.990       .  S
O123        H155   0.990       .  S
O124        H141   0.990       .  S
O125        H145   0.990       .  S
O125        H154   0.990       .  S
O126        C127   1.275       .  A
C127       C1047   1.460       .  S
O128        H147   0.990       .  S
O128        H151   0.990       .  S
O129        H143   0.990       .  S
O129        H150   0.990       .  S
O130        C134   1.299       .  A
O131        C134   1.281       .  A
O132        H142   0.990       .  S
O133        H146   0.990       .  S
C134       C1062   1.459       .  S
C157        C158   1.427       .  A
C157        C162   1.394       .  A
C157       C1048   1.462       .  S
C158        C159   1.426       .  A
C158        H163   1.083       .  S
C159        C160   1.392       .  A
C159       C1037   1.458   1_545  S
C160        C161   1.392       .  A
C160        H164   1.086   1_545  S
C161        C162   1.394       .  A
C161       C1028   1.461       .  S
C162        H165   1.085       .  S
Zr166       O167   2.441       .  S
Zr166       O168   2.493       .  S
Zr166       O169   2.498       .  S
Zr166       O172   2.491       .  S
Zr166       O174   2.389       .  S
Zr166       O175   2.391       .  S
Zr166       O176   2.421       .  S
Zr166       O177   2.410       .  S
O167        H223   0.990       .  S
O167        H231   0.990       .  S
O168        C188   1.294       .  A
O169        C190   1.296       .  A
O170       Zr180   2.431       .  S
O170        C189   1.282       .  A
O171       Zr179   2.438       .  S
O171        C190   1.284       .  A
O172        C189   1.296       .  A
O173       Zr181   2.393       .  S
O173        C188   1.273       .  A
O174       Zr179   2.408       .  S
O174       Zr181   2.389       .  S
O175       Zr180   2.404       .  S
O175       Zr181   2.382       .  S
O175        H210   0.966       .  S
O176       Zr179   2.403       .  S
O176       Zr196   2.374       .  S
O176        H213   0.964       .  S
O177       Zr180   2.390       .  S
O177       Zr196   2.391       .  S
Zr178       O203   2.440       .  S
Zr178       O197   2.486       .  S
Zr178       O205   2.498       .  S
Zr178       O193   2.501       .  S
Zr178       O184   2.402       .  S
Zr178       O185   2.419       .  S
Zr178       O186   2.387       .  S
Zr178       O187   2.393       .  S
Zr179       O198   2.435       .  S
Zr179       O191   2.436       .  S
Zr179       O192   2.435       .  S
Zr179       O185   2.406       .  S
Zr179       O186   2.401       .  S
Zr180       O182   2.435       .  S
Zr180       O204   2.438       .  S
Zr180       O206   2.433       .  S
Zr180       O184   2.387       .  S
Zr180       O187   2.398       .  S
Zr181       O207   2.436       .  S
Zr181       O208   2.434       .  S
Zr181       O183   2.437       .  S
Zr181       O184   2.379       .  S
Zr181       O185   2.381       .  S
O182        H219   0.990       .  S
O183        H214   0.990       .  S
O183        H228   0.990       .  S
O185        H211   0.964       .  S
O186       Zr196   2.388       .  S
O187       Zr196   2.385       .  S
O187        H212   0.966       .  S
C188       C1021   1.450       .  S
C189       C1023   1.458       .  S
C190       C1026   1.456       .  S
O191        H227   0.990       .  S
O192        C194   1.283       .  A
O193        C194   1.297       .  A
C194       C1038   1.459       .  S
O195       Zr196   2.439       .  S
O195        H224   0.990       .  S
Zr196       O199   2.438       .  S
Zr196       O200   2.439       .  S
Zr196       O201   2.388       .  S
O197        C202   1.293       .  A
O198        H215   0.990       .  S
O198        H230   0.990       .  S
O199        H216   0.990       .  S
O200        H220   0.990       .  S
O200        H229   0.990       .  S
O201        C202   1.272       .  A
C202       C1148   1.443       .  S
O203        H222   0.990       .  S
O203        H226   0.990       .  S
O204        H218   0.990       .  S
O204        H225   0.990       .  S
O205        C209   1.297       .  A
O206        C209   1.283       .  A
O207        H217   0.990       .  S
O208        H221   0.990       .  S
C209       C1078   1.462       .  S
Zr232       O233   2.443       .  S
Zr232       O234   2.500       .  S
Zr232       O235   2.520       .  S
Zr232       O238   2.512       .  S
Zr232       O240   2.389       .  S
Zr232       O241   2.395       .  S
Zr232       O242   2.422       .  S
Zr232       O243   2.413       .  S
O233        H289   0.991       .  S
O233        H297   0.991       .  S
O234        C254   1.296       .  A
O235        C256   1.300       .  A
O236       Zr246   2.431       .  S
O236        C255   1.283       .  A
O237       Zr245   2.420       .  S
O237        C256   1.280       .  A
O238        C255   1.300       .  A
O239       Zr247   2.401       .  S
O239        C254   1.275       .  A
O240       Zr245   2.405       .  S
O240       Zr247   2.387       .  S
O241       Zr246   2.402       .  S
O241       Zr247   2.381       .  S
O241        H276   0.966       .  S
O242       Zr245   2.408       .  S
O242       Zr262   2.382       .  S
O242        H279   0.963       .  S
O243       Zr246   2.391       .  S
O243       Zr262   2.392       .  S
Zr244       O269   2.439       .  S
Zr244       O263   2.503       .  S
Zr244       O271   2.502       .  S
Zr244       O259   2.513       .  S
Zr244       O250   2.412       .  S
Zr244       O251   2.422       .  S
Zr244       O252   2.381       .  S
Zr244       O253   2.395       .  S
Zr245       O264   2.436       .  S
Zr245       O257   2.436       .  S
Zr245       O258   2.431       .  S
Zr245       O251   2.399       .  S
Zr245       O252   2.400       .  S
Zr246       O248   2.434       .  S
Zr246       O270   2.440       .  S
Zr246       O272   2.428       .  S
Zr246       O250   2.388       .  S
Zr246       O253   2.404       .  S
Zr247       O273   2.436       .  S
Zr247       O274   2.436       .  S
Zr247       O249   2.438       .  S
Zr247       O250   2.385       .  S
Zr247       O251   2.385       .  S
O248        H285   0.990       .  S
O249        H280   0.990       .  S
O249        H294   0.990       .  S
O251        H277   0.963       .  S
O252       Zr262   2.387       .  S
O253       Zr262   2.384       .  S
O253        H278   0.966       .  S
C254       C1065   1.455       .  S
C255       C1162   1.468       .  S
C256       C1060   1.458       .  S
O257        H293   0.990       .  S
O258        C260   1.283       .  A
O259        C260   1.300       .  A
C260       C1015   1.464       .  S
O261       Zr262   2.438       .  S
O261        H290   0.990       .  S
Zr262       O265   2.437       .  S
Zr262       O266   2.439       .  S
Zr262       O267   2.405       .  S
O263        C268   1.296       .  A
O264        H281   0.990       .  S
O264        H296   0.990       .  S
O265        H282   0.990       .  S
O266        H286   0.990       .  S
O266        H295   0.990       .  S
O267        C268   1.275       .  A
C268       C1017   1.461       .  S
O269        H288   0.990       .  S
O269        H292   0.990       .  S
O270        H284   0.990       .  S
O270        H291   0.990       .  S
O271        C275   1.298       .  A
O272        C275   1.282       .  A
O273        H283   0.990       .  S
O274        H287   0.990       .  S
C275       C1020   1.460       .  S
Zr298       O299   2.440       .  S
Zr298       O300   2.487       .  S
Zr298       O301   2.505       .  S
Zr298       O304   2.487       .  S
Zr298       O306   2.387       .  S
Zr298       O307   2.392       .  S
Zr298       O308   2.420       .  S
Zr298       O309   2.413       .  S
O299        H355   0.990       .  S
O299        H363   0.990       .  S
O300        C320   1.293       .  A
O301        C322   1.297       .  A
O302       Zr312   2.427       .  S
O302        C321   1.281       .  A
O303       Zr311   2.435       .  S
O303        C322   1.283       .  A
O304        C321   1.295       .  A
O305       Zr313   2.402       .  S
O305        C320   1.275       .  A
O306       Zr311   2.403       .  S
O306       Zr313   2.386       .  S
O307       Zr312   2.404       .  S
O307       Zr313   2.379       .  S
O307        H342   0.966       .  S
O308       Zr311   2.405       .  S
O308       Zr328   2.377       .  S
O308        H345   0.963       .  S
O309       Zr312   2.389       .  S
O309       Zr328   2.386       .  S
Zr310       O335   2.441       .  S
Zr310       O329   2.495       .  S
Zr310       O337   2.502       .  S
Zr310       O325   2.504       .  S
Zr310       O316   2.408       .  S
Zr310       O317   2.421       .  S
Zr310       O318   2.381       .  S
Zr310       O319   2.396       .  S
Zr311       O330   2.434       .  S
Zr311       O323   2.436       .  S
Zr311       O324   2.434       .  S
Zr311       O317   2.403       .  S
Zr311       O318   2.399       .  S
Zr312       O314   2.438       .  S
Zr312       O336   2.439       .  S
Zr312       O338   2.425       .  S
Zr312       O316   2.389       .  S
Zr312       O319   2.402       .  S
Zr313       O339   2.436       .  S
Zr313       O340   2.435       .  S
Zr313       O315   2.437       .  S
Zr313       O316   2.384       .  S
Zr313       O317   2.387       .  S
O314        H351   0.990       .  S
O315        H346   0.990       .  S
O315        H360   0.990       .  S
O317        H343   0.964       .  S
O318       Zr328   2.390       .  S
O319       Zr328   2.387       .  S
O319        H344   0.965       .  S
C320       C1009   1.451       .  S
C321       C1011   1.454       .  S
C322       C1013   1.459       .  S
O323        H359   0.990       .  S
O324        C326   1.283       .  A
O325        C326   1.297       .  A
C326       C1079   1.462       .  S
O327       Zr328   2.440       .  S
O327        H356   0.990       .  S
Zr328       O331   2.437       .  S
Zr328       O332   2.442       .  S
Zr328       O333   2.393       .  S
O329        C334   1.295       .  A
O330        H347   0.990       .  S
O330        H362   0.990       .  S
O331        H348   0.990       .  S
O332        H352   0.990       .  S
O332        H361   0.989       .  S
O333        C334   1.274       .  A
C334       C1175   1.450       .  S
O335        H354   0.990       .  S
O335        H358   0.990       .  S
O336        H350   0.990       .  S
O336        H357   0.990       .  S
O337        C341   1.298       .  A
O338        C341   1.282       .  A
O339        H349   0.990       .  S
O340        H353   0.990       .  S
C341       C1064   1.458       .  S
C364        C365   1.386       .  A
C364        C369   1.428       .  A
C364       C1046   1.456       .  S
C365        C366   1.387       .  A
C365        H370   1.087       .  S
C366        C367   1.391   1_554  A
C366        C998   1.453       .  S
C367        C368   1.396       .  A
C367        H371   1.085       .  S
C368        C369   1.430   1_556  A
C368       C1007   1.462       .  S
C369        H372   1.083       .  S
Zr373       O374   2.440       .  S
Zr373       O375   2.485       .  S
Zr373       O376   2.505       .  S
Zr373       O379   2.504       .  S
Zr373       O381   2.388       .  S
Zr373       O382   2.393       .  S
Zr373       O383   2.422       .  S
Zr373       O384   2.406       .  S
O374        H430   0.990       .  S
O374        H438   0.990       .  S
O375        C395   1.292       .  A
O376        C397   1.297       .  A
O377       Zr387   2.429       .  S
O377        C396   1.282       .  A
O378       Zr386   2.427       .  S
O378        C397   1.281       .  A
O379        C396   1.299       .  A
O380       Zr388   2.394       .  S
O380        C395   1.274       .  A
O381       Zr386   2.404       .  S
O381       Zr388   2.388       .  S
O382       Zr387   2.398       .  S
O382       Zr388   2.384       .  S
O382        H417   0.966       .  S
O383       Zr386   2.405       .  S
O383       Zr403   2.386       .  S
O383        H420   0.964       .  S
O384       Zr387   2.388       .  S
O384       Zr403   2.389       .  S
Zr385       O410   2.438       .  S
Zr385       O404   2.476       .  S
Zr385       O412   2.486       .  S
Zr385       O400   2.499       .  S
Zr385       O391   2.406       .  S
Zr385       O392   2.417       .  S
Zr385       O393   2.387       .  S
Zr385       O394   2.392       .  S
Zr386       O405   2.437       .  S
Zr386       O398   2.434       .  S
Zr386       O399   2.431       .  S
Zr386       O392   2.403       .  S
Zr386       O393   2.400       .  S
Zr387       O389   2.435       .  S
Zr387       O411   2.439       .  S
Zr387       O413   2.420       .  S
Zr387       O391   2.390       .  S
Zr387       O394   2.399       .  S
Zr388       O414   2.436       .  S
Zr388       O415   2.438       .  S
Zr388       O390   2.438       .  S
Zr388       O391   2.385       .  S
Zr388       O392   2.377       .  S
O389        H426   0.990       .  S
O390        H421   0.990       .  S
O390        H435   0.990       .  S
O392        H418   0.964       .  S
O393       Zr403   2.388       .  S
O394       Zr403   2.383       .  S
O394        H419   0.966       .  S
C395       C1093   1.444       .  S
C396       C1008   1.462       .  S
C397       C1122   1.457       .  S
O398        H434   0.990       .  S
O399        C401   1.282       .  A
O400        C401   1.296       .  A
C401        C992   1.456       .  S
O402       Zr403   2.440       .  S
O402        H431   0.990       .  S
Zr403       O406   2.438       .  S
Zr403       O407   2.441       .  S
Zr403       O408   2.405       .  S
O404        C409   1.291       .  A
O405        H422   0.990       .  S
O405        H437   0.990       .  S
O406        H423   0.990       .  S
O407        H427   0.990       .  S
O407        H436   0.989       .  S
O408        C409   1.276       .  A
C409        C993   1.447       .  S
O410        H429   0.990       .  S
O410        H433   0.990       .  S
O411        H425   0.990       .  S
O411        H432   0.990       .  S
O412        C416   1.295       .  A
O413        C416   1.280       .  A
O414        H424   0.990       .  S
O415        H428   0.990       .  S
C416        C996   1.454       .  S
Zr439       O440   2.443       .  S
Zr439       O441   2.475       .  S
Zr439       O442   2.476       .  S
Zr439       O445   2.472       .  S
Zr439       O447   2.384       .  S
Zr439       O448   2.390       .  S
Zr439       O449   2.418       .  S
Zr439       O450   2.404       .  S
O440        H496   0.990       .  S
O440        H504   0.991       .  S
O441        C461   1.291       .  A
O442        C463   1.290       .  A
O443       Zr453   2.435       .  S
O443        C462   1.283       .  A
O444       Zr452   2.426       .  S
O444        C463   1.281       .  A
O445        C462   1.292       .  A
O446       Zr454   2.402       .  S
O446        C461   1.275       .  A
O447       Zr452   2.400       .  S
O447       Zr454   2.388       .  S
O448       Zr453   2.400       .  S
O448       Zr454   2.381       .  S
O448        H483   0.966       .  S
O449       Zr452   2.401       .  S
O449       Zr469   2.391       .  S
O449        H486   0.965       .  S
O450       Zr453   2.387       .  S
O450       Zr469   2.384       .  S
Zr451       O476   2.441       .  S
Zr451       O470   2.480       .  S
Zr451       O478   2.477       .  S
Zr451       O466   2.489       .  S
Zr451       O457   2.407       .  S
Zr451       O458   2.418       .  S
Zr451       O459   2.382       .  S
Zr451       O460   2.389       .  S
Zr452       O471   2.433       .  S
Zr452       O464   2.434       .  S
Zr452       O465   2.422       .  S
Zr452       O458   2.402       .  S
Zr452       O459   2.400       .  S
Zr453       O455   2.435       .  S
Zr453       O477   2.439       .  S
Zr453       O479   2.429       .  S
Zr453       O457   2.390       .  S
Zr453       O460   2.402       .  S
Zr454       O480   2.435       .  S
Zr454       O481   2.435       .  S
Zr454       O456   2.437       .  S
Zr454       O457   2.384       .  S
Zr454       O458   2.385       .  S
O455        H492   0.990       .  S
O456        H487   0.990       .  S
O456        H501   0.990       .  S
O458        H484   0.964       .  S
O459       Zr469   2.387       .  S
O460       Zr469   2.383       .  S
O460        H485   0.966       .  S
C461       C1092   1.444       .  S
C462       C1108   1.449       .  S
C463       C1150   1.446       .  S
O464        H500   0.990       .  S
O465        C467   1.280       .  A
O466        C467   1.294       .  A
C467        C987   1.449       .  S
O468       Zr469   2.439       .  S
O468        H497   0.990       .  S
Zr469       O472   2.438       .  S
Zr469       O473   2.441       .  S
Zr469       O474   2.401       .  S
O470        C475   1.291       .  A
O471        H488   0.990       .  S
O471        H503   0.990       .  S
O472        H489   0.990       .  S
O473        H493   0.990       .  S
O473        H502   0.990       .  S
O474        C475   1.275       .  A
C475        C989   1.446       .  S
O476        H495   0.990       .  S
O476        H499   0.990       .  S
O477        H491   0.990       .  S
O477        H498   0.990       .  S
O478        C482   1.293       .  A
O479        C482   1.283       .  A
O480        H490   0.990       .  S
O481        H494   0.990       .  S
C482        C985   1.452       .  S
Zr505       O506   2.439       .  S
Zr505       O507   2.495       .  S
Zr505       O508   2.517       .  S
Zr505       O511   2.496       .  S
Zr505       O513   2.388       .  S
Zr505       O514   2.394       .  S
Zr505       O515   2.418       .  S
Zr505       O516   2.414       .  S
O506        H562   0.990       .  S
O506        H570   0.990       .  S
O507        C527   1.295       .  A
O508        C529   1.300       .  A
O509       Zr519   2.426       .  S
O509        C528   1.282       .  A
O510       Zr518   2.442       .  S
O510        C529   1.284       .  A
O511        C528   1.297       .  A
O512       Zr520   2.402       .  S
O512        C527   1.275       .  A
O513       Zr518   2.405       .  S
O513       Zr520   2.389       .  S
O514       Zr519   2.404       .  S
O514       Zr520   2.378       .  S
O514        H549   0.966       .  S
O515       Zr518   2.402       .  S
O515       Zr535   2.376       .  S
O515        H552   0.963       .  S
O516       Zr519   2.393       .  S
O516       Zr535   2.393       .  S
Zr517       O542   2.439       .  S
Zr517       O536   2.506       .  S
Zr517       O544   2.507       .  S
Zr517       O532   2.510       .  S
Zr517       O523   2.409       .  S
Zr517       O524   2.425       .  S
Zr517       O525   2.385       .  S
Zr517       O526   2.394       .  S
Zr518       O537   2.436       .  S
Zr518       O530   2.436       .  S
Zr518       O531   2.431       .  S
Zr518       O524   2.405       .  S
Zr518       O525   2.404       .  S
Zr519       O521   2.436       .  S
Zr519       O543   2.440       .  S
Zr519       O545   2.432       .  S
Zr519       O523   2.386       .  S
Zr519       O526   2.403       .  S
Zr520       O546   2.436       .  S
Zr520       O547   2.436       .  S
Zr520       O522   2.437       .  S
Zr520       O523   2.387       .  S
Zr520       O524   2.384       .  S
O521        H558   0.990       .  S
O522        H553   0.990       .  S
O522        H567   0.990       .  S
O524        H550   0.964       .  S
O525       Zr535   2.387       .  S
O526       Zr535   2.386       .  S
O526        H551   0.966       .  S
C527       C1136   1.455       .  S
C528       C1120   1.459       .  S
C529       C1164   1.468       .  S
O530        H566   0.990       .  S
O531        C533   1.283       .  A
O532        C533   1.299       .  A
C533        C981   1.460       .  S
O534       Zr535   2.440       .  S
O534        H563   0.990       .  S
Zr535       O538   2.438       .  S
Zr535       O539   2.438       .  S
Zr535       O540   2.400       .  S
O536        C541   1.297       .  A
O537        H554   0.990       .  S
O537        H569   0.990       .  S
O538        H555   0.990       .  S
O539        H559   0.990       .  S
O539        H568   0.990       .  S
O540        C541   1.275       .  A
C541        C983   1.458       .  S
O542        H561   0.990       .  S
O542        H565   0.990       .  S
O543        H557   0.990       .  S
O543        H564   0.990       .  S
O544        C548   1.299       .  A
O545        C548   1.283       .  A
O546        H556   0.990       .  S
O547        H560   0.990       .  S
C548        C979   1.464       .  S
Zr571       O572   2.441       .  S
Zr571       O573   2.477       .  S
Zr571       O574   2.484       .  S
Zr571       O577   2.484       .  S
Zr571       O579   2.387       .  S
Zr571       O580   2.389       .  S
Zr571       O581   2.421       .  S
Zr571       O582   2.409       .  S
O572        H628   0.990       .  S
O572        H636   0.991       .  S
O573        C593   1.291       .  A
O574        C595   1.293       .  A
O575       Zr585   2.437       .  S
O575        C594   1.284       .  A
O576       Zr584   2.436       .  S
O576        C595   1.283       .  A
O577        C594   1.294       .  A
O578       Zr586   2.400       .  S
O578        C593   1.274       .  A
O579       Zr584   2.406       .  S
O579       Zr586   2.386       .  S
O580       Zr585   2.404       .  S
O580       Zr586   2.381       .  S
O580        H615   0.966       .  S
O581       Zr584   2.405       .  S
O581       Zr601   2.381       .  S
O581        H618   0.964       .  S
O582       Zr585   2.390       .  S
O582       Zr601   2.391       .  S
Zr583       O608   2.440       .  S
Zr583       O602   2.488       .  S
Zr583       O610   2.493       .  S
Zr583       O598   2.492       .  S
Zr583       O589   2.404       .  S
Zr583       O590   2.420       .  S
Zr583       O591   2.387       .  S
Zr583       O592   2.393       .  S
Zr584       O603   2.437       .  S
Zr584       O596   2.436       .  S
Zr584       O597   2.440       .  S
Zr584       O590   2.404       .  S
Zr584       O591   2.400       .  S
Zr585       O587   2.436       .  S
Zr585       O609   2.439       .  S
Zr585       O611   2.430       .  S
Zr585       O589   2.388       .  S
Zr585       O592   2.404       .  S
Zr586       O612   2.437       .  S
Zr586       O613   2.435       .  S
Zr586       O588   2.437       .  S
Zr586       O589   2.382       .  S
Zr586       O590   2.384       .  S
O587        H624   0.990       .  S
O588        H619   0.990       .  S
O588        H633   0.990       .  S
O590        H616   0.964       .  S
O591       Zr601   2.390       .  S
O592       Zr601   2.387       .  S
O592        H617   0.965       .  S
C593       C1106   1.446       .  S
C594       C1133   1.459       .  S
C595       C1177   1.451       .  S
O596        H632   0.990       .  S
O597        C599   1.284       .  A
O598        C599   1.294       .  A
C599        C975   1.459       .  S
O600       Zr601   2.440       .  S
O600        H629   0.990       .  S
Zr601       O604   2.440       .  S
Zr601       O605   2.438       .  S
Zr601       O606   2.401       .  S
O602        C607   1.293       .  A
O603        H620   0.990       .  S
O603        H635   0.990       .  S
O604        H621   0.990       .  S
O605        H625   0.990       .  S
O605        H634   0.990       .  S
O606        C607   1.275       .  A
C607        C977   1.450       .  S
O608        H627   0.991       .  S
O608        H631   0.990       .  S
O609        H623   0.990       .  S
O609        H630   0.990       .  S
O610        C614   1.296       .  A
O611        C614   1.282       .  A
O612        H622   0.990       .  S
O613        H626   0.990       .  S
C614        C973   1.456       .  S
C637        C638   1.393       .  A
C637        C642   1.421       .  A
C637        C978   1.452       .  S
C638        C639   1.394       .  A
C638        H643   1.085       .  S
C639        C640   1.391       .  A
C639        C964   1.459       .  S
C640        C641   1.392       .  A
C640        H644   1.086       .  S
C641        C642   1.420       .  A
C641        C988   1.450       .  S
C642        H645   1.083       .  S
C646        C647   1.395       .  A
C646        C651   1.419       .  A
C646        C994   1.450       .  S
C647        C648   1.394       .  A
C647        H652   1.086       .  S
C648        C649   1.390       .  A
C648        C957   1.456       .  S
C649        C650   1.391       .  A
C649        H653   1.086       .  S
C650        C651   1.418       .  A
C650        C990   1.447       .  S
C651        H654   1.083       .  S
C655        C656   1.426       .  A
C655        C660   1.396       .  A
C655        C982   1.461       .  S
C656        C657   1.425       .  A
C656        H661   1.083       .  S
C657        C658   1.390       .  A
C657        C995   1.454       .  S
C658        C659   1.390       .  A
C658        H662   1.086       .  S
C659        C660   1.394       .  A
C659        C944   1.460       .  S
C660        H663   1.085       .  S
C664        C665   1.388       .  A
C664        C669   1.425       .  A
C664        C984   1.457       .  S
C665        C666   1.391       .  A
C665        H670   1.086       .  S
C666        C667   1.394       .  A
C666        C934   1.459       .  S
C667        C668   1.397       .  A
C667        H671   1.085       .  S
C668        C669   1.427       .  A
C668        C976   1.460       .  S
C669        H672   1.083       .  S
C673        C674   1.429       .  A
C673        C678   1.392       .  A
C673       C1019   1.460       .  S
C674        C675   1.429       .  A
C674        H679   1.082       .  S
C675        C676   1.390       .  A
C675       C1042   1.458       .  S
C676        C677   1.388       .  A
C676        H680   1.086       .  S
C677        C678   1.389       .  A
C677        C924   1.449       .  S
C678        H681   1.086       .  S
C682        C683   1.389       .  A
C682        C687   1.428       .  A
C682       C1018   1.460       .  S
C683        C684   1.389       .  A
C683        H688   1.086       .  S
C684        C685   1.389       .  A
C684        C914   1.451       .  S
C685        C686   1.394       .  A
C685        H689   1.086       .  S
C686        C687   1.430       .  A
C686       C1014   1.460       .  S
C687        H690   1.083       .  S
C691        C692   1.423       .  A
C691        C696   1.390       .  A
C691       C1012   1.453       .  S
C692        C693   1.424       .  A
C692        H697   1.083       .  S
C693        C694   1.397       .  A
C693       C1025   1.457       .  S
C694        C695   1.395       .  A
C694        H698   1.085       .  S
C695        C696   1.389       .  A
C695        C904   1.458       .  S
C696        H699   1.086       .  S
C700        C701   1.425       .  A
C700        C705   1.395       .  A
C700       C1044   1.457       .  S
C701        C702   1.424       .  A
C701        H706   1.083       .  S
C702        C703   1.391       .  A
C702       C1024   1.457       .  S
C703        C704   1.393       .  A
C703        H707   1.086       .  S
C704        C705   1.394       .  A
C704        C894   1.462       .  S
C705        H708   1.085       .  S
C709        C710   1.394       .  A
C709        C714   1.425       .  A
C709       C1010   1.454       .  S
C710        C711   1.392       .  A
C710        H715   1.086       .  S
C711        C712   1.389       .  A
C711        C884   1.452       .  S
C712        C713   1.391       .  A
C712        H716   1.086       .  S
C713        C714   1.423       .  A
C713        C974   1.454       .  S
C714        H717   1.083       .  S
C718        C719   1.431       .  A
C718        C723   1.395       .  A
C718       C1016   1.465       .  S
C719        C720   1.430       .  A
C719        H724   1.083       .  S
C720        C721   1.390       .  A
C720        C980   1.462       .  S
C721        C722   1.388       .  A
C721        H725   1.086       .  S
C722        C723   1.392       .  A
C722        C874   1.453       .  S
C723        H726   1.086       .  S
C727        C728   1.421       .  A
C727        C732   1.390       .  A
C727       C1022   1.451       .  S
C728        C729   1.422       .  A
C728        H733   1.083       .  S
C729        C730   1.396       .  A
C729        C986   1.453       .  S
C730        C731   1.392       .  A
C730        H734   1.085       .  S
C731        C732   1.389       .  A
C731        C864   1.454       .  S
C732        H735   1.086       .  S
C736        C737   1.392       .  A
C736        C741   1.425       .  A
C736       C1039   1.454       .  S
C737        C738   1.389       .  A
C737        H742   1.086       .  S
C738        C739   1.392       .  A
C738        C854   1.456       .  S
C739        C740   1.393       .  A
C739        H743   1.086       .  S
C740        C741   1.425       .  A
C740        C991   1.457       .  S
C741        H744   1.083       .  S
O745       Zr781   2.409   1_566  S
O745        C756   1.287       .  A
O746       Zr780   2.406   1_565  S
O746        C757   1.287       .  A
O747       Zr753   2.407   1_556  S
O747        C758   1.287       .  A
O748       Zr753   2.406   1_655  S
O748        C759   1.287       .  A
O749       Zr783   2.419   1_565  S
O749        C759   1.289       .  A
O750       Zr782   2.418   1_565  S
O750        C758   1.289       .  A
O751       Zr753   2.412       .  S
O751        C757   1.288       .  A
O752       Zr753   2.408   1_655  S
O752        C756   1.288   1_554  A
Zr753       O754   2.320   1_565  S
Zr753       O755   2.320   1_464  S
Zr753       O763   2.326   1_465  S
Zr753       O761   2.318   1_564  S
O754       Zr780   2.320       .  S
O754       Zr783   2.324   1_455  S
O755       Zr781   2.320   1_556  S
O755       Zr782   2.325   1_655  S
C756       C1183   1.454       .  S
C757       C1155   1.450       .  S
C758       C1113   1.460       .  S
C759       C1085   1.456       .  S
H760        O761   0.965   1_565  S
O761       Zr780   2.326   1_556  S
O761       Zr782   2.321       .  S
H762        O763   0.966   1_565  S
O763       Zr781   2.327       .  S
O763       Zr783   2.327       .  S
O764       Zr780   2.406       .  S
O764        C787   1.287       .  A
O765       Zr781   2.409       .  S
O765        C788   1.288       .  A
O766       Zr782   2.419       .  S
O766        C789   1.290       .  A
O767       Zr783   2.412   1_455  S
O767        C790   1.287       .  A
O768       Zr783   2.410       .  S
O768        C791   1.288       .  A
O769       Zr782   2.425   1_655  S
O769        C792   1.290       .  A
O770       Zr784   2.410   1_456  S
O770        C793   1.287       .  A
O771       Zr784   2.402       .  S
O771        C794   1.286       .  A
O772       Zr782   2.412       .  S
O772        C793   1.289       .  A
O773       Zr783   2.405       .  S
O773        C794   1.287       .  A
O774       Zr780   2.406   1_556  S
O774        C789   1.286       .  A
O775       Zr781   2.401   1_556  S
O775        C792   1.287       .  A
O776       Zr781   2.406       .  S
O776        C791   1.286       .  A
O777       Zr780   2.414       .  S
O777        C790   1.289       .  A
O778       Zr784   2.409   1_455  S
O778        C787   1.286       .  A
O779       Zr784   2.403       .  S
O779        C788   1.286       .  A
Zr780       O786   2.324   1_554  S
Zr780       O798   2.323       .  S
Zr781       O785   2.323       .  S
Zr781       O796   2.328   1_554  S
Zr782       O786   2.327       .  S
Zr782       O796   2.328   1_455  S
Zr783       O785   2.325       .  S
Zr783       O798   2.337   1_655  S
Zr784       O785   2.329       .  S
Zr784       O786   2.323   1_654  S
Zr784       O798   2.334   1_655  S
Zr784       O796   2.331   1_554  S
C787       C1001   1.455       .  S
C788       C1169   1.453       .  S
C789       C1099   1.455       .  S
C790       C1031   1.455       .  S
C791       C1071   1.455       .  S
C792       C1141   1.460       .  S
C793       C1127   1.454       .  S
C794       C1053   1.449       .  S
H795        O796   0.965       .  S
H797        O798   0.965       .  S
O799       Zr835   2.412       .  S
O799        C810   1.288       .  A
O800       Zr834   2.416       .  S
O800        C811   1.288       .  A
O801       Zr807   2.411       .  S
O801        C812   1.288       .  A
O802       Zr807   2.407       .  S
O802        C813   1.286       .  A
O803       Zr837   2.412       .  S
O803        C813   1.289       .  A
O804       Zr836   2.403       .  S
O804        C812   1.286       .  A
O805       Zr807   2.415       .  S
O805        C811   1.289       .  A
O806       Zr807   2.409       .  S
O806        C810   1.288       .  A
Zr807       O808   2.327       .  S
Zr807       O809   2.315       .  S
Zr807       O817   2.326       .  S
Zr807       O815   2.321       .  S
O808       Zr834   2.326       .  S
O808       Zr837   2.322       .  S
O809       Zr835   2.319       .  S
O809       Zr836   2.318       .  S
C810        C967   1.457       .  S
C811        C947   1.457       .  S
C812        C954   1.451       .  S
C813        C937   1.453       .  S
H814        O815   0.965       .  S
O815       Zr834   2.329       .  S
O815       Zr836   2.333       .  S
H816        O817   0.965       .  S
O817       Zr835   2.323       .  S
O817       Zr837   2.325       .  S
O818       Zr834   2.404       .  S
O818        C841   1.286       .  A
O819       Zr835   2.413       .  S
O819        C842   1.288       .  A
O820       Zr836   2.408       .  S
O820        C843   1.287       .  A
O821       Zr837   2.411       .  S
O821        C844   1.288       .  A
O822       Zr837   2.406       .  S
O822        C845   1.286       .  A
O823       Zr836   2.415       .  S
O823        C846   1.289       .  A
O824       Zr838   2.413       .  S
O824        C847   1.287       .  A
O825       Zr838   2.406       .  S
O825        C848   1.288       .  A
O826       Zr836   2.415       .  S
O826        C847   1.289       .  A
O827       Zr837   2.408       .  S
O827        C848   1.287       .  A
O828       Zr834   2.418       .  S
O828        C843   1.289       .  A
O829       Zr835   2.408       .  S
O829        C846   1.287       .  A
O830       Zr835   2.409       .  S
O830        C845   1.288       .  A
O831       Zr834   2.413       .  S
O831        C844   1.288       .  A
O832       Zr838   2.402       .  S
O832        C841   1.287       .  A
O833       Zr838   2.410       .  S
O833        C842   1.287       .  A
Zr834       O840   2.333       .  S
Zr834       O852   2.331       .  S
Zr835       O839   2.321       .  S
Zr835       O850   2.329       .  S
Zr836       O840   2.323       .  S
Zr836       O850   2.325       .  S
Zr837       O839   2.326       .  S
Zr837       O852   2.329       .  S
Zr838       O839   2.326       .  S
Zr838       O840   2.328       .  S
Zr838       O852   2.331       .  S
Zr838       O850   2.329       .  S
C841        C927   1.447       .  S
C842        C907   1.450       .  S
C843        C857   1.453       .  S
C844        C877   1.458       .  S
C845        C887   1.452       .  S
C846        C867   1.460       .  S
C847        C897   1.454       .  S
C848        C917   1.453       .  S
H849        O850   0.966       .  S
H851        O852   0.965       .  S
C853        C854   1.399       .  A
C853        C858   1.386       .  A
C853        H859   1.084       .  S
C854        C855   1.401       .  A
C855        C856   1.391       .  A
C855        H860   1.083       .  S
C856        C857   1.401       .  A
C856        H861   1.083       .  S
C857        C858   1.402       .  A
C858        H862   1.084       .  S
C863        C864   1.400       .  A
C863        C868   1.391       .  A
C863        H869   1.083       .  S
C864        C865   1.398       .  A
C865        C866   1.388       .  A
C865        H870   1.084       .  S
C866        C867   1.404       .  A
C866        H871   1.083       .  S
C867        C868   1.404       .  A
C868        H872   1.083       .  S
C873        C874   1.398       .  A
C873        C878   1.391       .  A
C873        H879   1.083       .  S
C874        C875   1.399       .  A
C875        C876   1.385       .  A
C875        H880   1.084       .  S
C876        C877   1.402       .  A
C876        H881   1.083       .  S
C877        C878   1.405       .  A
C878        H882   1.083       .  S
C883        C884   1.398       .  A
C883        C888   1.389       .  A
C883        H889   1.083       .  S
C884        C885   1.399       .  A
C885        C886   1.385       .  A
C885        H890   1.084       .  S
C886        C887   1.401       .  A
C886        H891   1.084       .  S
C887        C888   1.403       .  A
C888        H892   1.083       .  S
C893        C894   1.403       .  A
C893        C898   1.395       .  A
C893        H899   1.083       .  S
C894        C895   1.401       .  A
C895        C896   1.383       .  A
C895        H900   1.083       .  S
C896        C897   1.399       .  A
C896        H901   1.084       .  S
C897        C898   1.402       .  A
C898        H902   1.083       .  S
C903        C904   1.402       .  A
C903        C908   1.387       .  A
C903        H909   1.084       .  S
C904        C905   1.400       .  A
C905        C906   1.390       .  A
C905        H910   1.083       .  S
C906        C907   1.402       .  A
C906        H911   1.084       .  S
C907        C908   1.399       .  A
C908        H912   1.084       .  S
C913        C914   1.399       .  A
C913        C918   1.391       .  A
C913        H919   1.083       .  S
C914        C915   1.399       .  A
C915        C916   1.381       .  A
C915        H920   1.084       .  S
C916        C917   1.400       .  A
C916        H921   1.083       .  S
C917        C918   1.405       .  A
C918        H922   1.083       .  S
C923        C924   1.399       .  A
C923        C928   1.388       .  A
C923        H929   1.083       .  S
C924        C925   1.399       .  A
C925        C926   1.383       .  A
C925        H930   1.084       .  S
C926        C927   1.400       .  A
C926        H931   1.084       .  S
C927        C928   1.401       .  A
C928        H932   1.084       .  S
C933        C934   1.401       .  A
C933        C938   1.392       .  A
C933        H939   1.083       .  S
C934        C935   1.401       .  A
C935        C936   1.383       .  A
C935        H940   1.084       .  S
C936        C937   1.399       .  A
C936        H941   1.084       .  S
C937        C938   1.404       .  A
C938        H942   1.083       .  S
C943        C944   1.401       .  A
C943        C948   1.392       .  A
C943        H949   1.083       .  S
C944        C945   1.401       .  A
C945        C946   1.386       .  A
C945        H950   1.084       .  S
C946        C947   1.400       .  A
C946        H951   1.083       .  S
C947        C948   1.404       .  A
C948        H952   1.083       .  S
C953        C954   1.399       .  A
C953        C958   1.383       .  A
C953        H959   1.084       .  S
C954        C955   1.402       .  A
C955        C956   1.392       .  A
C955        H960   1.083       .  S
C956        C957   1.400       .  A
C956        H961   1.083       .  S
C957        C958   1.400       .  A
C958        H962   1.084       .  S
C963        C964   1.401       .  A
C963        C968   1.389       .  A
C963        H969   1.083       .  S
C964        C965   1.401       .  A
C965        C966   1.387       .  A
C965        H970   1.083       .  S
C966        C967   1.402       .  A
C966        H971   1.083       .  S
C967        C968   1.402       .  A
C968        H972   1.083       .  S
C973        C974   1.218       .  T
C975        C976   1.220       .  T
C977        C978   1.215       .  T
C979        C980   1.223       .  T
C981        C982   1.221       .  T
C983        C984   1.220       .  T
C985        C986   1.215       .  T
C987        C988   1.214       .  T
C989        C990   1.213       .  T
C991        C992   1.219       .  T
C993        C994   1.213       .  T
C995        C996   1.217       .  T
C997        C998   1.398   1_556  A
C997       C1002   1.391       .  A
C997       H1003   1.083       .  S
C998        C999   1.400       .  A
C999       C1000   1.383       .  A
C999       H1004   1.084       .  S
C1000      C1001   1.400       .  A
C1000      H1005   1.083       .  S
C1001      C1002   1.405   1_554  A
C1002      H1006   1.083       .  S
C1007      C1008   1.222       .  T
C1009      C1010   1.216       .  T
C1011      C1012   1.217       .  T
C1013      C1014   1.220       .  T
C1015      C1016   1.223       .  T
C1017      C1018   1.221       .  T
C1019      C1020   1.221       .  T
C1021      C1022   1.215       .  T
C1023      C1024   1.219       .  T
C1025      C1026   1.218       .  T
C1027      C1028   1.401       .  A
C1027      C1032   1.384       .  A
C1027      H1033   1.084   1_545  S
C1028      C1029   1.402       .  A
C1029      C1030   1.393       .  A
C1029      H1034   1.083       .  S
C1030      C1031   1.402       .  A
C1030      H1035   1.083       .  S
C1031      C1032   1.400       .  A
C1032      H1036   1.084       .  S
C1037      C1038   1.220       .  T
C1039      C1040   1.217       .  T
C1041      C1042   1.220       .  T
C1043      C1044   1.218       .  T
C1045      C1046   1.220       .  T
C1047      C1048   1.221       .  T
C1049      C1050   1.400       .  A
C1049      C1054   1.383       .  A
C1049      H1055   1.084       .  S
C1050      C1051   1.398   1_655  A
C1051      C1052   1.387       .  A
C1051      H1056   1.083       .  S
C1052      C1053   1.403   1_455  A
C1052      H1057   1.083       .  S
C1053      C1054   1.400       .  A
C1054      H1058   1.084       .  S
C1059      C1060   1.220       .  T
C1061      C1062   1.220       .  T
C1063      C1064   1.219       .  T
C1065      C1066   1.218       .  T
C1067      C1068   1.398       .  A
C1067      C1072   1.383       .  A
C1067      H1073   1.084       .  S
C1068      C1069   1.398       .  A
C1069      C1070   1.390       .  A
C1069      H1074   1.083       .  S
C1070      C1071   1.404       .  A
C1070      H1075   1.083       .  S
C1071      C1072   1.402       .  A
C1072      H1076   1.083       .  S
C1077      C1078   1.222       .  T
C1079      C1080   1.222       .  T
C1081      C1082   1.401   1_655  A
C1081      C1086   1.392       .  A
C1081      H1087   1.083       .  S
C1082      C1083   1.399       .  A
C1083      C1084   1.384       .  A
C1083      H1088   1.084       .  S
C1084      C1085   1.402   1_455  A
C1084      H1089   1.084       .  S
C1085      C1086   1.402       .  A
C1086      H1090   1.083       .  S
C1091      C1092   1.212       .  T
C1093      C1094   1.212       .  T
C1095      C1096   1.400       .  A
C1095      C1100   1.383       .  A
C1095      H1101   1.084       .  S
C1096      C1097   1.400       .  A
C1097      C1098   1.393       .  A
C1097      H1102   1.083       .  S
C1098      C1099   1.404       .  A
C1098      H1103   1.083       .  S
C1099      C1100   1.400       .  A
C1100      H1104   1.084       .  S
C1105      C1106   1.213       .  T
C1107      C1108   1.213       .  T
C1109      C1110   1.398   1_655  A
C1109      C1114   1.387       .  A
C1109      H1115   1.084       .  S
C1110      C1111   1.401       .  A
C1111      C1112   1.391       .  A
C1111      H1116   1.083       .  S
C1112      C1113   1.403       .  A
C1112      H1117   1.083       .  S
C1113      C1114   1.404   1_455  A
C1114      H1118   1.083       .  S
C1119      C1120   1.220       .  T
C1121      C1122   1.219       .  T
C1123      C1124   1.403   1_655  A
C1123      C1128   1.393       .  A
C1123      H1129   1.083       .  S
C1124      C1125   1.402       .  A
C1125      C1126   1.384       .  A
C1125      H1130   1.083       .  S
C1126      C1127   1.400       .  A
C1126      H1131   1.084       .  S
C1127      C1128   1.402   1_455  A
C1128      H1132   1.083       .  S
C1133      C1134   1.220       .  T
C1135      C1136   1.218       .  T
C1137      C1138   1.400       .  A
C1137      C1142   1.394       .  A
C1137      H1143   1.083       .  S
C1138      C1139   1.398       .  A
C1139      C1140   1.384       .  A
C1139      H1144   1.084       .  S
C1140      C1141   1.403       .  A
C1140      H1145   1.084       .  S
C1141      C1142   1.404       .  A
C1142      H1146   1.083       .  S
C1147      C1148   1.211       .  T
C1149      C1150   1.212       .  T
C1151      C1152   1.402       .  A
C1151      C1156   1.388       .  A
C1151      H1157   1.083       .  S
C1152      C1153   1.398   1_554  A
C1153      C1154   1.387       .  A
C1153      H1158   1.083       .  S
C1154      C1155   1.403   1_556  A
C1154      H1159   1.084       .  S
C1155      C1156   1.400       .  A
C1156      H1160   1.084       .  S
C1161      C1162   1.225       .  T
C1163      C1164   1.225       .  T
C1165      C1166   1.400       .  A
C1165      C1170   1.390       .  A
C1165      H1171   1.083       .  S
C1166      C1167   1.400   1_554  A
C1167      C1168   1.384       .  A
C1167      H1172   1.084       .  S
C1168      C1169   1.401   1_556  A
C1168      H1173   1.084       .  S
C1169      C1170   1.403       .  A
C1170      H1174   1.083       .  S
C1175      C1176   1.215       .  T
C1177      C1178   1.215       .  T
C1179      C1180   1.399   1_554  A
C1179      C1184   1.389       .  A
C1179      H1185   1.083       .  S
C1180      C1181   1.399       .  A
C1181      C1182   1.386       .  A
C1181      H1186   1.084       .  S
C1182      C1183   1.402       .  A
C1182      H1187   1.084       .  S
C1183      C1184   1.403   1_556  A
C1184      H1188   1.083       .  S
