geometry optimzed in LAMMPS
_audit_creation_date              2020-12-01 
_audit_creation_method            'lammps2cif' 
_symmetry_space_group_name_H-M    'P1' 
_symmetry_Int_Tables_number       1 
_symmetry_cell_setting            triclinic 
loop_ 
_symmetry_equiv_pos_as_xyz 
  x,y,z 
_cell_length_a                    32.75584932 
_cell_length_b                    32.83161590412834 
_cell_length_c                    128.63781956553413 
_cell_angle_alpha                 89.97111141066812 
_cell_angle_beta                  90.09260325009927 
_cell_angle_gamma                 89.71804896947926 
loop_ 
_atom_site_label 
_atom_site_type_symbol 
_atom_site_fract_x 
_atom_site_fract_y 
_atom_site_fract_z 
_atom_site_charge 
In1        In  0.09099776  0.24486097  0.81569134     1.36900
C2          C  0.05740865  0.31909767  0.81670824     0.77300
O3          O  0.09480030  0.24323066  0.83315511    -0.61100
O4          O  0.14974245  0.23897880  0.82451741    -0.52000
C5          C  0.05579638  0.17206171  0.81554688     0.70000
O6          O  0.03545252  0.20477610  0.81606597    -0.46900
C7          C  0.12033263  0.24895666  0.79642927     0.74700
O8          O  0.03651666  0.28698946  0.81738477    -0.58700
O9          O  0.14271092  0.25163714  0.80438494    -0.48800
O10         O  0.09518618  0.31295458  0.81575459    -0.55200
C11         C  0.13317261  0.23982480  0.83335439     0.84900
O12         O  0.09392252  0.17686035  0.81516753    -0.57100
O13         O  0.08313216  0.24288957  0.79835780    -0.60400
In14       In  0.23163387  0.38370540  0.68682479     1.36900
C15         C  0.15751601  0.41747173  0.68533817     0.77300
O16         O  0.23015675  0.38132453  0.66941781    -0.61100
O17         O  0.24068493  0.32604046  0.67751709    -0.52000
C18         C  0.30521748  0.41826892  0.68710425     0.70000
O19         O  0.27259073  0.43867022  0.68629901    -0.46900
C20         C  0.22404329  0.35510899  0.70608196     0.74700
O21         O  0.18987190  0.43822330  0.68490772    -0.58700
O22         O  0.22485134  0.33219358  0.69820316    -0.48800
O23         O  0.16337956  0.37970236  0.68639358    -0.55200
C24         C  0.23700964  0.34358887  0.66882838     0.84900
O25         O  0.29997595  0.38042206  0.68795400    -0.57100
O26         O  0.22837146  0.39244502  0.70408587    -0.60400
In27       In  0.73022678  0.61103621  0.68632193     1.36900
C28         C  0.80317806  0.57505434  0.68509163     0.77300
O29         O  0.72867479  0.61321149  0.66887928    -0.61100
O30         O  0.72427069  0.66894482  0.67712658    -0.52000
C31         C  0.65671299  0.57727356  0.68638318     0.70000
O32         O  0.68908446  0.55678671  0.68520213    -0.46900
C33         C  0.73512978  0.64052401  0.70554766     0.74700
O34         O  0.77032128  0.55517554  0.68536797    -0.58700
O35         O  0.73820665  0.66274927  0.69758350    -0.48800
O36         O  0.79847547  0.61315623  0.68540153    -0.55200
C37         C  0.72490441  0.65139454  0.66840524     0.84900
O38         O  0.66215606  0.61496903  0.68757768    -0.57100
O39         O  0.72912267  0.60338154  0.70363353    -0.60400
In40       In  0.86561226  0.74660254  0.81542037     1.36900
C41         C  0.90095983  0.67344505  0.81684343     0.77300
O42         O  0.86382408  0.74748354  0.83291645    -0.61100
O43         O  0.80806119  0.75411996  0.82469398    -0.52000
C44         C  0.89971827  0.82007777  0.81432370     0.70000
O45         O  0.92061100  0.78776102  0.81497189    -0.46900
C46         C  0.83402986  0.73932553  0.79643464     0.74700
O47         O  0.92113704  0.70611103  0.81709515    -0.58700
O48         O  0.81240718  0.73860246  0.80453774    -0.48800
O49         O  0.86290454  0.67849978  0.81610696    -0.55200
C50         C  0.82562353  0.75215138  0.83341125     0.84900
O51         O  0.86169017  0.81454930  0.81424138    -0.57100
O52         O  0.87161833  0.74425194  0.79808623    -0.60400
In53       In  0.22982973  0.38041838  0.06551195     1.36900
C54         C  0.30273298  0.41568326  0.06783898     0.77300
O55         O  0.21977982  0.37706989  0.08266065    -0.61100
O56         O  0.23012234  0.32163996  0.07456596    -0.52000
C57         C  0.15694529  0.41726894  0.06535340     0.70000
O58         O  0.18955730  0.43566634  0.06755404    -0.46900
C59         C  0.23625909  0.35003208  0.04630159     0.74700
O60         O  0.27128666  0.43504838  0.06500435    -0.58700
O61         O  0.23181004  0.32774067  0.05420533    -0.48800
O62         O  0.29671529  0.37841121  0.06954626    -0.55200
C63         C  0.22343216  0.33887348  0.08317735     0.84900
O64         O  0.16177508  0.38008190  0.06320768    -0.57100
O65         O  0.23722810  0.38759240  0.04827037    -0.60400
In66       In  0.36641862  0.24327130  0.93642286     1.36900
C67         C  0.40223033  0.31538745  0.93408882     0.77300
O68         O  0.36551414  0.23362683  0.91917850    -0.61100
O69         O  0.30951704  0.24688759  0.92675838    -0.52000
C70         C  0.39826094  0.16870345  0.93718216     0.70000
O71         O  0.42007962  0.20019984  0.93646519    -0.46900
C72         C  0.33582826  0.25051815  0.95550039     0.74700
O73         O  0.42226708  0.28244791  0.93440637    -0.58700
O74         O  0.31355493  0.24616988  0.94756624    -0.48800
O75         O  0.36421346  0.31113745  0.93499023    -0.55200
C76         C  0.32762139  0.23951144  0.91831024     0.84900
O77         O  0.36044694  0.17568222  0.93778043    -0.57100
O78         O  0.37363174  0.25035440  0.95364249    -0.60400
In79       In  0.58870575  0.74182526  0.93567031     1.36900
C80         C  0.55680974  0.66772504  0.93342284     0.77300
O81         O  0.59210093  0.74866910  0.91835760    -0.61100
O82         O  0.64757616  0.74701002  0.92691125    -0.52000
C83         C  0.55214239  0.81445693  0.93565518     0.70000
O84         O  0.53252134  0.78160614  0.93482134    -0.46900
C85         C  0.61809439  0.73569485  0.95496977     0.74700
O86         O  0.53507436  0.69925036  0.93455930    -0.58700
O87         O  0.64061449  0.73671630  0.94703982    -0.48800
O88         O  0.59461869  0.67440800  0.93322790    -0.55200
C89         C  0.63057910  0.75010633  0.91813273     0.84900
O90         O  0.59017800  0.80986498  0.93665502    -0.57100
O91         O  0.58045784  0.73847637  0.95302175    -0.60400
In92       In  0.72820423  0.61026340  0.06518198     1.36900
C93         C  0.65533236  0.57406963  0.06666871     0.77300
O94         O  0.73522260  0.61255636  0.08258071    -0.61100
O95         O  0.72626191  0.66824701  0.07455143    -0.52000
C96         C  0.80320717  0.57756299  0.06481400     0.70000
O97         O  0.77149171  0.55665320  0.06631733    -0.46900
C98         C  0.72150456  0.64013536  0.04592608     0.74700
O99         O  0.68836771  0.55420641  0.06613554    -0.58700
O100        O  0.72391528  0.66260670  0.05385997    -0.48800
O101        O  0.65985333  0.61214214  0.06657285    -0.55200
C102        C  0.73154319  0.65072038  0.08318443     0.84900
O103        O  0.79634778  0.61499889  0.06340168    -0.57100
O104        O  0.72341104  0.60251572  0.04786314    -0.60400
In105      In  0.58921621  0.74943767  0.31513624     1.36900
C106        C  0.55590005  0.82341537  0.31656862     0.77300
O107        O  0.59138922  0.74560679  0.33252786    -0.61100
O108        O  0.64752435  0.74682328  0.32435642    -0.52000
C109        C  0.55500641  0.67589760  0.31446837     0.70000
O110        O  0.53417793  0.70823260  0.31522929    -0.46900
C111        C  0.61886832  0.75450667  0.29597281     0.74700
O112        O  0.53508208  0.79127746  0.31735381    -0.58700
O113        O  0.64142289  0.75132545  0.30389767    -0.48800
O114        O  0.59356313  0.81742635  0.31526389    -0.55200
C115        C  0.62982289  0.74487643  0.33304205     0.84900
O116        O  0.59297274  0.68149382  0.31395491    -0.57100
O117        O  0.58109983  0.75454226  0.29788141    -0.60400
In118      In  0.73036213  0.88203437  0.18661976     1.36900
C119        C  0.65677247  0.91648611  0.18444371     0.77300
O120        O  0.73307207  0.87992875  0.16923076    -0.61100
O121        O  0.73441673  0.82394512  0.17750205    -0.52000
C122        C  0.80436471  0.91576119  0.18735250     0.70000
O123        O  0.77192411  0.93656792  0.18793763    -0.46900
C124        C  0.72408018  0.85118431  0.20571199     0.74700
O125        O  0.68939257  0.93678341  0.18405709    -0.58700
O126        O  0.72575596  0.82916708  0.19769385    -0.48800
O127        O  0.66209410  0.87882478  0.18579137    -0.55200
C128        C  0.73477152  0.84156012  0.16877927     0.84900
O129        O  0.79868457  0.87802408  0.18640650    -0.57100
O130        O  0.72632169  0.88886222  0.20393770    -0.60400
In131      In  0.36364174  0.25019377  0.31551491     1.36900
C132        C  0.39837709  0.17666465  0.31614623     0.77300
O133        O  0.36174463  0.24901723  0.33294395    -0.61100
O134        O  0.30594799  0.25713348  0.32483343    -0.52000
C135        C  0.39905780  0.32309866  0.31531905     0.70000
O136        O  0.41912479  0.29045593  0.31642480    -0.46900
C137        C  0.33265023  0.24600064  0.29643432     0.74700
O138        O  0.41876961  0.20914113  0.31657690    -0.58700
O139        O  0.31085204  0.24376390  0.30449052    -0.48800
O140        O  0.36032587  0.18199863  0.31553961    -0.55200
C141        C  0.32366711  0.25420117  0.33351309     0.84900
O142        O  0.36111083  0.31818851  0.31433694    -0.57100
O143        O  0.37017467  0.25108719  0.29818199    -0.60400
In144      In  0.23000663  0.11032345  0.18692314     1.36900
C145        C  0.30329296  0.07525810  0.18528858     0.77300
O146        O  0.23238377  0.11351917  0.16952777    -0.61100
O147        O  0.21825515  0.16764314  0.17776884    -0.52000
C148        C  0.15695778  0.07435648  0.18759010     0.70000
O149        O  0.18990204  0.05461851  0.18664995    -0.46900
C150        C  0.23871120  0.14149136  0.20590031     0.74700
O151        O  0.27059815  0.05502719  0.18527576    -0.58700
O152        O  0.24065834  0.16289880  0.19777480    -0.48800
O153        O  0.29822389  0.11321722  0.18605290    -0.55200
C154        C  0.22379938  0.15093937  0.16905467     0.84900
O155        O  0.16154090  0.11237974  0.18818547    -0.57100
O156        O  0.23181997  0.10428633  0.20428368    -0.60400
In157      In  0.86429739  0.74610363  0.43627501     1.36900
C158        C  0.89785576  0.81981203  0.43459008     0.77300
O159        O  0.86044479  0.74049723  0.41890828    -0.61100
O160        O  0.80511402  0.74646870  0.42727409    -0.52000
C161        C  0.90058197  0.67318866  0.43611807     0.70000
O162        O  0.92027231  0.70599226  0.43530931    -0.46900
C163        C  0.83662892  0.74917491  0.45582426     0.74700
O164        O  0.91857099  0.78736599  0.43408376    -0.58700
O165        O  0.81326592  0.74572265  0.44806434    -0.48800
O166        O  0.86012903  0.81433904  0.43583460    -0.55200
C167        C  0.82205140  0.74250388  0.41852642     0.84900
O168        O  0.86256750  0.67793884  0.43711261    -0.57100
O169        O  0.87405184  0.75032879  0.45355720    -0.60400
In170      In  0.72596154  0.88438908  0.56536604     1.36900
C171        C  0.79961681  0.91800420  0.56782230     0.77300
O172        O  0.71557036  0.88171415  0.58265577    -0.61100
O173        O  0.72269416  0.82608578  0.57448263    -0.52000
C174        C  0.65246987  0.91958773  0.56408230     0.70000
O175        O  0.68414835  0.93900622  0.56661313    -0.46900
C176        C  0.73568196  0.85330723  0.54633746     0.74700
O177        O  0.76800063  0.93884408  0.56588700    -0.58700
O178        O  0.73031057  0.83152993  0.55429662    -0.48800
O179        O  0.79319277  0.88036003  0.56868642    -0.55200
C180        C  0.71696163  0.84335364  0.58312112     0.84900
O181        O  0.65867400  0.88247008  0.56212181    -0.57100
O182        O  0.73554715  0.89108575  0.54811537    -0.60400
In183      In  0.22440656  0.11322050  0.56556012     1.36900
C184        C  0.15216409  0.07616867  0.56734192     0.77300
O185        O  0.22962548  0.11667416  0.58290720    -0.61100
O186        O  0.22873482  0.17205816  0.57441467    -0.52000
C187        C  0.29875588  0.07914459  0.56518362     0.70000
O188        O  0.26691339  0.05939951  0.56733760    -0.46900
C189        C  0.21565054  0.14418723  0.54654756     0.74700
O190        O  0.18487761  0.05706381  0.56551348    -0.58700
O191        O  0.21545765  0.16596737  0.55461628    -0.48800
O192        O  0.15662106  0.11405251  0.56835764    -0.55200
C193        C  0.23110830  0.15503644  0.58319016     0.84900
O194        O  0.29243670  0.11625404  0.56320177    -0.57100
O195        O  0.22077033  0.10668975  0.54823294    -0.60400
In196      In  0.08994813  0.24447125  0.43625362     1.36900
C197        C  0.05404516  0.17213537  0.43397091     0.77300
O198        O  0.09338718  0.24975199  0.41891974    -0.61100
O199        O  0.14886285  0.24560437  0.42740921    -0.52000
C200        C  0.05792151  0.31933131  0.43709615     0.70000
O201        O  0.03625913  0.28768903  0.43655586    -0.46900
C202        C  0.11895320  0.23789039  0.45547727     0.74700
O203        O  0.03418064  0.20518628  0.43368729    -0.58700
O204        O  0.14189328  0.23931436  0.44762219    -0.48800
O205        O  0.09187043  0.17644483  0.43533463    -0.55200
C206        C  0.13187581  0.24903959  0.41864433     0.84900
O207        O  0.09579834  0.31247770  0.43723204    -0.57100
O208        O  0.08132839  0.23971811  0.45344163    -0.60400
C209        C  0.20989525  0.16099557  0.53600214    -0.03600
C210        C  0.20012935  0.20237445  0.53456156    -0.09400
C211        C  0.19332379  0.21780121  0.52456448    -0.17000
C212        C  0.19645299  0.19208192  0.51592478     0.25100
C213        C  0.20656387  0.15097503  0.51729803    -0.18700
C214        C  0.21323001  0.13548512  0.52727339    -0.07600
C215        C  0.18755965  0.20712141  0.50567154    -0.14000
C216        C  0.17803159  0.21691119  0.49697342    -0.13800
C217        C  0.16366116  0.22492581  0.48661133     0.25000
C218        C  0.12166181  0.22534696  0.48464513    -0.19200
C219        C  0.10718902  0.23001989  0.47450581    -0.07600
C220        C  0.13460135  0.23421936  0.46619174    -0.03700
C221        C  0.17679721  0.23441737  0.46822577    -0.09000
C222        C  0.19125107  0.22979262  0.47840471    -0.16700
H223        H  0.19722290  0.22263357  0.54116242     0.11500
H224        H  0.18521422  0.24960831  0.52358500     0.10800
H225        H  0.20882506  0.13077500  0.51066285     0.10700
H226        H  0.22069787  0.10349968  0.52816233     0.11200
H227        H  0.10007957  0.22136885  0.49093632     0.11300
H228        H  0.07454774  0.22977449  0.47315696     0.11200
H229        H  0.19854443  0.23773690  0.46195278     0.11400
H230        H  0.22384441  0.22933133  0.47984848     0.10200
C231        C  0.84096297  0.93577239  0.56877932    -0.03600
C232        C  0.84729126  0.97764874  0.56720850    -0.09400
C233        C  0.88676281  0.99384666  0.56762049    -0.17000
C234        C  0.92040376  0.96846121  0.56961950     0.25100
C235        C  0.91424979  0.92683279  0.57134615    -0.18700
C236        C  0.87483595  0.91058959  0.57093174    -0.07600
C237        C  0.96120288  0.98501558  0.56968987    -0.14000
C238        C  0.99503327  0.99958197  0.56955414    -0.13800
C239        C  0.03477502  0.01844791  0.56921929     0.25000
C240        C  0.06990983  0.99504786  0.56735384    -0.19200
C241        C  0.10823645  0.01372984  0.56681734    -0.07600
C242        C  0.11188640  0.05608498  0.56813645    -0.03700
C243        C  0.07650263  0.07929234  0.57007061    -0.09000
C244        C  0.03826323  0.06058777  0.57060301    -0.16700
H245        H  0.82181814  0.99776464  0.56552683     0.11500
H246        H  0.89108414  0.02610985  0.56627437     0.10800
H247        H  0.93995682  0.90683619  0.57290795     0.10700
H248        H  0.87092178  0.87822318  0.57217647     0.11200
H249        H  0.06766495  0.96241984  0.56625592     0.11300
H250        H  0.13495196  0.99510549  0.56531089     0.11200
H251        H  0.07834322  0.11196422  0.57111083     0.11400
H252        H  0.01135887  0.07905919  0.57203688     0.10200
C253        C  0.34000125  0.06042739  0.56495539    -0.03600
C254        C  0.34577037  0.01940215  0.56777561    -0.09400
C255        C  0.38471525  0.00163817  0.56741369    -0.17000
C256        C  0.41837859  0.02459595  0.56421245     0.25100
C257        C  0.41290502  0.06553759  0.56146054    -0.18700
C258        C  0.37402016  0.08337155  0.56184109    -0.07600
C259        C  0.45849219  0.00624277  0.56374441    -0.14000
C260        C  0.49222167  0.99121652  0.56341094    -0.13800
C261        C  0.53263634  0.97347336  0.56322610     0.25000
C262        C  0.56691693  0.99779505  0.56507247    -0.19200
C263        C  0.60603136  0.98038937  0.56526068    -0.07600
C264        C  0.61135319  0.93840184  0.56357062    -0.03700
C265        C  0.57683861  0.91427315  0.56157499    -0.09000
C266        C  0.53775738  0.93170205  0.56142098    -0.16700
H267        H  0.32017495  0.00104004  0.57024119     0.11500
H268        H  0.38853633  0.96996948  0.56959769     0.10800
H269        H  0.43868500  0.08366587  0.55899216     0.10700
H270        H  0.37053165  0.11503958  0.55963690     0.11200
H271        H  0.56338210  0.03016295  0.56646675     0.11300
H272        H  0.63205677  0.99970335  0.56679244     0.11200
H273        H  0.58000084  0.88183502  0.56025268     0.11400
H274        H  0.51151930  0.91253466  0.55998503     0.10200
C275        C  0.03503777  0.13150826  0.43295736    -0.03600
C276        C  0.05947739  0.09625506  0.43361208    -0.09400
C277        C  0.04190372  0.05760877  0.43314203    -0.17000
C278        C  0.99965601  0.05354319  0.43199670     0.25100
C279        C  0.97506893  0.08846789  0.43113002    -0.18700
C280        C  0.99264818  0.12728606  0.43160511    -0.07600
C281        C  0.98171969  0.01350708  0.43204951    -0.14000
C282        C  0.96750225  0.97966357  0.43237751    -0.13800
C283        C  0.95024541  0.93938326  0.43291982     0.25000
C284        C  0.90834374  0.93467305  0.43460885    -0.19200
C285        C  0.89133352  0.89573574  0.43508669    -0.07600
C286        C  0.91605428  0.86089825  0.43391442    -0.03700
C287        C  0.95817023  0.86581138  0.43225412    -0.09000
C288        C  0.97514653  0.90485105  0.43176166    -0.16700
H289        H  0.09220926  0.09852918  0.43463189     0.11500
H290        H  0.06125720  0.03086852  0.43381242     0.10800
H291        H  0.94231227  0.08570304  0.43022727     0.10700
H292        H  0.97311033  0.15390860  0.43105223     0.11200
H293        H  0.88878092  0.96112213  0.43554935     0.11300
H294        H  0.85883327  0.89289146  0.43641235     0.11200
H295        H  0.97794099  0.83952004  0.43134711     0.11400
H296        H  0.00764592  0.90809745  0.43047558     0.10200
C297        C  0.92016039  0.63247292  0.43593988    -0.03600
C298        C  0.89652886  0.59730966  0.43741881    -0.09400
C299        C  0.91486939  0.55875493  0.43750033    -0.17000
C300        C  0.95705405  0.55473487  0.43607738     0.25100
C301        C  0.98076225  0.58956052  0.43442527    -0.18700
C302        C  0.96244717  0.62822987  0.43436041    -0.07600
C303        C  0.97585949  0.51490138  0.43647899    -0.14000
C304        C  0.99066785  0.48115771  0.43691420    -0.13800
C305        C  0.00761651  0.44050980  0.43733071     0.25000
C306        C  0.04998695  0.43462572  0.43746386    -0.19200
C307        C  0.06638012  0.39515927  0.43752187    -0.07600
C308        C  0.04056152  0.36102634  0.43742773    -0.03700
C309        C  0.99806808  0.36717923  0.43745633    -0.09000
C310        C  0.98173169  0.40666718  0.43741209    -0.16700
H311        H  0.86387971  0.59962141  0.43861023     0.11500
H312        H  0.89615960  0.53207937  0.43875547     0.10800
H313        H  0.01341683  0.58685695  0.43327287     0.10700
H314        H  0.98134848  0.65477177  0.43313702     0.11200
H315        H  0.07035822  0.46052835  0.43742362     0.11300
H316        H  0.09923881  0.39135284  0.43752218     0.11200
H317        H  0.97746864  0.34147868  0.43741985     0.11400
H318        H  0.94889903  0.41079538  0.43733824     0.10200
C319        C  0.82155664  0.75262201  0.46665397    -0.03600
C320        C  0.77964316  0.74965570  0.46889927    -0.09400
C321        C  0.76538842  0.75565146  0.47906236    -0.17000
C322        C  0.79282608  0.76472526  0.48709792     0.25100
C323        C  0.83466833  0.76668598  0.48495266    -0.18700
C324        C  0.84895744  0.76061212  0.47482189    -0.07600
C325        C  0.77821030  0.77471011  0.49738687    -0.14000
C326        C  0.76792637  0.78610653  0.50593385    -0.13800
C327        C  0.75789652  0.80278213  0.51601290     0.25000
C328        C  0.74986232  0.77707560  0.52445332    -0.19200
C329        C  0.74204261  0.79354802  0.53430177    -0.07600
C330        C  0.74220289  0.83596942  0.53583940    -0.03700
C331        C  0.74972891  0.86158704  0.52729894    -0.09000
C332        C  0.75755023  0.84507453  0.51746586    -0.16700
H333        H  0.75784175  0.74344137  0.46277145     0.11500
H334        H  0.73292572  0.75411348  0.48060162     0.10800
H335        H  0.85622340  0.77382086  0.49107707     0.10700
H336        H  0.88138380  0.76311324  0.47333889     0.11200
H337        H  0.75010994  0.74431346  0.52345380     0.11300
H338        H  0.73632810  0.77308620  0.54073647     0.11200
H339        H  0.75008090  0.89436004  0.52824504     0.11400
H340        H  0.76381563  0.86531458  0.51101375     0.10200
C341        C  0.30180137  0.25670895  0.34352630    -0.03600
C342        C  0.32334999  0.25289593  0.35294004    -0.09400
C343        C  0.30278270  0.25502284  0.36243570    -0.17000
C344        C  0.26047667  0.26100534  0.36264128     0.25100
C345        C  0.23878460  0.26507611  0.35330579    -0.18700
C346        C  0.25931725  0.26294706  0.34379092    -0.07600
C347        C  0.23926031  0.26181498  0.37242200    -0.14000
C348        C  0.22128607  0.26111906  0.38058701    -0.13800
C349        C  0.19899700  0.25879800  0.39019116     0.25000
C350        C  0.15631820  0.25742230  0.39001026    -0.19200
C351        C  0.13445478  0.25422511  0.39928753    -0.07600
C352        C  0.15507974  0.25226780  0.40886279    -0.03700
C353        C  0.19797045  0.25374448  0.40899595    -0.09000
C354        C  0.21980386  0.25702001  0.39969915    -0.16700
H355        H  0.35608433  0.24810540  0.35296295     0.11500
H356        H  0.31984136  0.25173301  0.36961374     0.10800
H357        H  0.20600151  0.26962286  0.35338061     0.10700
H358        H  0.24198716  0.26603366  0.33665442     0.11200
H359        H  0.13993728  0.25866026  0.38269107     0.11300
H360        H  0.10143703  0.25316308  0.39896647     0.11200
H361        H  0.21459444  0.25239658  0.41627383     0.11400
H362        H  0.25285131  0.25798784  0.39992183     0.10200
C363        C  0.31590475  0.24186668  0.28582844    -0.03600
C364        C  0.34165246  0.24557190  0.27715496    -0.09400
C365        C  0.32662377  0.23859449  0.26714750    -0.17000
C366        C  0.28573636  0.22784372  0.26567847     0.25100
C367        C  0.25958735  0.22512682  0.27424999    -0.18700
C368        C  0.27455924  0.23221886  0.28428021    -0.07600
C369        C  0.27166796  0.21712531  0.25544077    -0.14000
C370        C  0.26283871  0.20592458  0.24680473    -0.13800
C371        C  0.25530483  0.19022259  0.23653973     0.25000
C372        C  0.24850499  0.14852603  0.23515270    -0.19200
C373        C  0.24298272  0.13269537  0.22516989    -0.07600
C374        C  0.24422740  0.15842091  0.21644022    -0.03700
C375        C  0.25107960  0.20028635  0.21788549    -0.09000
C376        C  0.25657096  0.21608529  0.22788957    -0.16700
H377        H  0.37360224  0.25303194  0.27812179     0.11500
H378        H  0.34714701  0.24066114  0.26057156     0.10800
H379        H  0.22791822  0.21666830  0.27320571     0.10700
H380        H  0.25408152  0.22915561  0.29083288     0.11200
H381        H  0.24781600  0.12818183  0.24178459     0.11300
H382        H  0.23795478  0.10030529  0.22427866     0.11200
H383        H  0.25233013  0.22074956  0.21128977     0.11400
H384        H  0.26214028  0.24835917  0.22886899     0.10200
C385        C  0.61559221  0.93501190  0.18361317    -0.03600
C386        C  0.61065036  0.97714494  0.18205705    -0.09400
C387        C  0.57152287  0.99455888  0.18174007    -0.17000
C388        C  0.53692567  0.97008388  0.18296508     0.25100
C389        C  0.54163884  0.92807240  0.18440468    -0.18700
C390        C  0.58065956  0.91062752  0.18470608    -0.07600
C391        C  0.49661844  0.98799345  0.18290282    -0.14000
C392        C  0.46277333  0.00274031  0.18303322    -0.13800
C393        C  0.42257182  0.02080561  0.18340373     0.25000
C394        C  0.38772973  0.99624164  0.18305865    -0.19200
C395        C  0.34877454  0.01388829  0.18362244    -0.07600
C396        C  0.34425746  0.05634433  0.18453387    -0.03700
C397        C  0.37939389  0.08077134  0.18482478    -0.09000
C398        C  0.41825496  0.06309799  0.18426595    -0.16700
H399        H  0.63699602  0.99663901  0.18118928     0.11500
H400        H  0.56827314  0.02712616  0.18062227     0.10800
H401        H  0.51514872  0.90881416  0.18537216     0.10700
H402        H  0.58350002  0.87809323  0.18592455     0.11200
H403        H  0.39067264  0.96345843  0.18240415     0.11300
H404        H  0.32224456  0.99436091  0.18338560     0.11200
H405        H  0.37685553  0.11355521  0.18553485     0.11400
H406        H  0.44494844  0.08242164  0.18455570     0.10200
C407        C  0.11634580  0.05473765  0.18798593    -0.03600
C408        C  0.08089588  0.07837836  0.18945944    -0.09400
C409        C  0.04247494  0.05997002  0.18983696    -0.17000
C410        C  0.03887352  0.01771534  0.18872911     0.25100
C411        C  0.07403542  0.99392344  0.18726707    -0.18700
C412        C  0.11253852  0.01229378  0.18690468    -0.07600
C413        C  0.99903008  0.99906499  0.18891772    -0.14000
C414        C  0.96527923  0.98433599  0.18887849    -0.13800
C415        C  0.92477130  0.96718271  0.18858756     0.25000
C416        C  0.91960502  0.92544446  0.18683678    -0.19200
C417        C  0.88038910  0.90881258  0.18642630    -0.07600
C418        C  0.84571420  0.93372354  0.18774601    -0.03700
C419        C  0.85108281  0.97563995  0.18947374    -0.09000
C420        C  0.89038807  0.99223004  0.18990364    -0.16700
H421        H  0.08285894  0.11112299  0.19032032     0.11500
H422        H  0.01554275  0.07873880  0.19095438     0.10800
H423        H  0.07169104  0.96120536  0.18637309     0.10700
H424        H  0.13929168  0.99333655  0.18574940     0.11200
H425        H  0.94589461  0.90574373  0.18577088     0.11300
H426        H  0.87720595  0.87643642  0.18505678     0.11200
H427        H  0.82494527  0.99553420  0.19051598     0.11400
H428        H  0.89395401  0.02459893  0.19124031     0.10200
C429        C  0.65212843  0.74183630  0.34300306    -0.03600
C430        C  0.69502476  0.74279575  0.34323674    -0.09400
C431        C  0.71596200  0.74023769  0.35270839    -0.17000
C432        C  0.69428984  0.73663479  0.36203941     0.25100
C433        C  0.65159481  0.73525727  0.36184918    -0.18700
C434        C  0.63061965  0.73787788  0.35239531    -0.07600
C435        C  0.71574556  0.73552893  0.37182456    -0.14000
C436        C  0.73373920  0.73575945  0.38001866    -0.13800
C437        C  0.75574259  0.73701396  0.38972503     0.25000
C438        C  0.73465910  0.74072297  0.39914634    -0.19200
C439        C  0.75617331  0.74241834  0.40855129    -0.07600
C440        C  0.79906464  0.74045120  0.40863190    -0.03700
C441        C  0.81996861  0.73665581  0.39913625    -0.09000
C442        C  0.79842925  0.73499551  0.38975135    -0.16700
H443        H  0.71234743  0.74577178  0.33611462     0.11500
H444        H  0.74901092  0.74138710  0.35276141     0.10800
H445        H  0.63449647  0.73249460  0.36901655     0.10700
H446        H  0.59757747  0.73693188  0.35243790     0.11200
H447        H  0.70162116  0.74240151  0.39922146     0.11300
H448        H  0.73929686  0.74533929  0.41574719     0.11200
H449        H  0.85299110  0.73508972  0.39895955     0.11400
H450        H  0.81508645  0.73222827  0.38251285     0.10200
C451        C  0.41731254  0.13571695  0.31624861    -0.03600
C452        C  0.46000521  0.13116379  0.31637167    -0.09400
C453        C  0.47776287  0.09230353  0.31635325    -0.17000
C454        C  0.45307102  0.05760002  0.31623103     0.25100
C455        C  0.41054589  0.06191240  0.31609414    -0.18700
C456        C  0.39274850  0.10070902  0.31609416    -0.07600
C457        C  0.47124673  0.01756142  0.31633291    -0.14000
C458        C  0.48604224  0.98384341  0.31650066    -0.13800
C459        C  0.50361101  0.94354325  0.31672676     0.25000
C460        C  0.47889660  0.90962166  0.31859210    -0.19200
C461        C  0.49590825  0.87042191  0.31867863    -0.07600
C462        C  0.53788452  0.86476242  0.31691034    -0.03700
C463        C  0.56253996  0.89903643  0.31514685    -0.09000
C464        C  0.54547768  0.93814983  0.31504015    -0.16700
H465        H  0.47963482  0.15760992  0.31645526     0.11500
H466        H  0.51071498  0.08932733  0.31645124     0.10800
H467        H  0.39113551  0.03528243  0.31600000     0.10700
H468        H  0.35978029  0.10331365  0.31597998     0.11200
H469        H  0.44645372  0.91345323  0.31992095     0.11300
H470        H  0.47622980  0.84456829  0.32005401     0.11200
H471        H  0.59495712  0.89558191  0.31373604     0.11400
H472        H  0.56490609  0.96415494  0.31359102     0.10200
C473        C  0.41811095  0.36382967  0.31516089    -0.03600
C474        C  0.39355915  0.39895382  0.31438038    -0.09400
C475        C  0.41123571  0.43761209  0.31420749    -0.17000
C476        C  0.45367427  0.44174262  0.31479035     0.25100
C477        C  0.47840547  0.40691146  0.31556114    -0.18700
C478        C  0.46074069  0.36814211  0.31575550    -0.07600
C479        C  0.47162018  0.48176129  0.31460904    -0.14000
C480        C  0.48595468  0.51557227  0.31447022    -0.13800
C481        C  0.50308438  0.55595802  0.31434613     0.25000
C482        C  0.54541623  0.56099658  0.31377776    -0.19200
C483        C  0.56219965  0.60007775  0.31374568    -0.07600
C484        C  0.53684729  0.63472086  0.31429498    -0.03700
C485        C  0.49433033  0.62947099  0.31482527    -0.09000
C486        C  0.47757153  0.59029288  0.31484709    -0.16700
H487        H  0.36064427  0.39656054  0.31391778     0.11500
H488        H  0.39177503  0.46430072  0.31361662     0.10800
H489        H  0.51129900  0.40971875  0.31601420     0.10700
H490        H  0.48037159  0.34159880  0.31634736     0.11200
H491        H  0.56548259  0.53470446  0.31339097     0.11300
H492        H  0.59505861  0.60317441  0.31334477     0.11200
H493        H  0.47409433  0.65559763  0.31526144     0.11400
H494        H  0.44475211  0.58678069  0.31528901     0.10200
C495        C  0.63529136  0.75851333  0.28534513    -0.03600
C496        C  0.60870107  0.76129549  0.27678537    -0.09400
C497        C  0.62415920  0.76687272  0.26676833    -0.17000
C498        C  0.66631593  0.76974687  0.26518775     0.25100
C499        C  0.69304172  0.76639923  0.27365014    -0.18700
C500        C  0.67763459  0.76074296  0.28367957    -0.07600
C501        C  0.68178698  0.77842591  0.25496733    -0.14000
C502        C  0.69294327  0.78839752  0.24641591    -0.13800
C503        C  0.70371198  0.80349440  0.23628801     0.25000
C504        C  0.70882884  0.84538239  0.23480382    -0.19200
C505        C  0.71640355  0.86079509  0.22487254    -0.07600
C506        C  0.71889026  0.83445509  0.21628568    -0.03700
C507        C  0.71464810  0.79229398  0.21786303    -0.09000
C508        C  0.70703251  0.77691196  0.22782020    -0.16700
H509        H  0.57595630  0.75968836  0.27784840     0.11500
H510        H  0.60319718  0.76962562  0.26027812     0.10800
H511        H  0.72571101  0.76881151  0.27252022     0.10700
H512        H  0.69878173  0.75876046  0.29014215     0.11200
H513        H  0.70619564  0.86623308  0.24129798     0.11300
H514        H  0.71955356  0.89338844  0.22388481     0.11200
H515        H  0.71642218  0.77133671  0.21137974     0.11400
H516        H  0.70299915  0.74444079  0.22887905     0.10200
C517        C  0.73664476  0.81915078  0.15884027    -0.03600
C518        C  0.73389149  0.84022998  0.14934969    -0.09400
C519        C  0.73453264  0.81899770  0.13993134    -0.17000
C520        C  0.73805227  0.77648659  0.13987861     0.25100
C521        C  0.74127696  0.75530047  0.14929876    -0.18700
C522        C  0.74054120  0.77648648  0.15873284    -0.07600
C523        C  0.73766912  0.75463643  0.13016666    -0.14000
C524        C  0.73681838  0.73653297  0.12200617    -0.13800
C525        C  0.73554850  0.71500053  0.11224791     0.25000
C526        C  0.74886673  0.67447266  0.11168681    -0.19200
C527        C  0.74752070  0.65349570  0.10222339    -0.07600
C528        C  0.73310982  0.67293585  0.09317998    -0.03700
C529        C  0.71993553  0.71368122  0.09379628    -0.09000
C530        C  0.72098389  0.73450746  0.10328542    -0.16700
H531        H  0.73084125  0.87308863  0.14920808     0.11500
H532        H  0.73200165  0.83571493  0.13269357     0.10800
H533        H  0.74405102  0.72240134  0.14935383     0.10700
H534        H  0.74279883  0.75950836  0.16593265     0.11200
H535        H  0.76023971  0.65906903  0.11856425     0.11300
H536        H  0.75797456  0.62216593  0.10196191     0.11200
H537        H  0.70849479  0.72930393  0.08696330     0.11400
H538        H  0.71047730  0.76582348  0.10362789     0.10200
C539        C  0.63445515  0.73106785  0.96562742    -0.03600
C540        C  0.60789255  0.72808188  0.97416298    -0.09400
C541        C  0.62339775  0.72226572  0.98419725    -0.17000
C542        C  0.66559125  0.71937727  0.98583936     0.25100
C543        C  0.69227478  0.72285217  0.97739274    -0.18700
C544        C  0.67681429  0.72864223  0.96734438    -0.07600
C545        C  0.68107840  0.71063504  0.99610957    -0.14000
C546        C  0.69181874  0.70081014  0.00474431    -0.13800
C547        C  0.70185147  0.68626875  0.01502796     0.25000
C548        C  0.70181837  0.71295711  0.02352142    -0.19200
C549        C  0.70898950  0.69811504  0.03357837    -0.07600
C550        C  0.71608026  0.65633235  0.03526229    -0.03700
C551        C  0.71656188  0.62985008  0.02667420    -0.09000
C552        C  0.70956183  0.64475127  0.01663346    -0.16700
H553        H  0.57513836  0.72971678  0.97306712     0.11500
H554        H  0.60242899  0.71939872  0.99065992     0.10800
H555        H  0.72496706  0.72047437  0.97854844     0.10700
H556        H  0.69796983  0.73078163  0.96090779     0.11200
H557        H  0.69563451  0.74510672  0.02239451     0.11300
H558        H  0.70825390  0.71917696  0.04005150     0.11200
H559        H  0.72190396  0.59753269  0.02773098     0.11400
H560        H  0.70948803  0.62375412  0.01013803     0.10200
C561        C  0.42136798  0.35577638  0.93284939    -0.03600
C562        C  0.39691817  0.39105600  0.93227586    -0.09400
C563        C  0.41482040  0.42950070  0.93146440    -0.17000
C564        C  0.45736234  0.43320802  0.93122146     0.25100
C565        C  0.48190862  0.39817957  0.93160799    -0.18700
C566        C  0.46403853  0.35965450  0.93240551    -0.07600
C567        C  0.47574915  0.47299892  0.93096634    -0.14000
C568        C  0.49054585  0.50659675  0.93110546    -0.13800
C569        C  0.50728259  0.54709233  0.93154378     0.25000
C570        C  0.54940081  0.55309336  0.93057786    -0.19200
C571        C  0.56551613  0.59244531  0.93109492    -0.07600
C572        C  0.53965375  0.62628575  0.93258321    -0.03700
C573        C  0.49742607  0.61999921  0.93353759    -0.09000
C574        C  0.48138234  0.58063587  0.93303530    -0.16700
H575        H  0.36395241  0.38897356  0.93256153     0.11500
H576        H  0.39549268  0.45635978  0.93116762     0.10800
H577        H  0.51486475  0.40067837  0.93142973     0.10700
H578        H  0.48357209  0.33298984  0.93281112     0.11200
H579        H  0.56977915  0.52737640  0.92945706     0.11300
H580        H  0.59819588  0.59638148  0.93037421     0.11200
H581        H  0.47684263  0.64546748  0.93474747     0.11400
H582        H  0.44876583  0.57635274  0.93383777     0.10200
C583        C  0.41523793  0.12694375  0.93708094    -0.03600
C584        C  0.38894218  0.09321889  0.93730081    -0.09400
C585        C  0.40465786  0.05361481  0.93680934    -0.17000
C586        C  0.44681640  0.04721943  0.93610639     0.25100
C587        C  0.47325527  0.08061566  0.93595437    -0.18700
C588        C  0.45757770  0.12029366  0.93642938    -0.07600
C589        C  0.46295732  0.00642440  0.93557249    -0.14000
C590        C  0.47719272  0.97251278  0.93525368    -0.13800
C591        C  0.49575790  0.93269212  0.93512930     0.25000
C592        C  0.53811172  0.92889344  0.93619042    -0.19200
C593        C  0.55640061  0.89036771  0.93633544    -0.07600
C594        C  0.53251498  0.85507524  0.93543012    -0.03700
C595        C  0.48999040  0.85909577  0.93427298    -0.09000
C596        C  0.47171743  0.89773970  0.93412970    -0.16700
H597        H  0.35618741  0.09745552  0.93776120     0.11500
H598        H  0.38392400  0.02800430  0.93694173     0.10800
H599        H  0.50595808  0.07598627  0.93542822     0.10700
H600        H  0.47850070  0.14571965  0.93622149     0.11200
H601        H  0.55700464  0.95572992  0.93696332     0.11300
H602        H  0.58923251  0.88819803  0.93719421     0.11200
H603        H  0.47090142  0.83241681  0.93351862     0.11400
H604        H  0.43889193  0.90034480  0.93329642     0.10200
C605        C  0.22051823  0.31656261  0.09311416    -0.03600
C606        C  0.20664868  0.33672985  0.10208621    -0.09400
C607        C  0.20475186  0.31623665  0.11159421    -0.17000
C608        C  0.21687407  0.27540503  0.11227018     0.25100
C609        C  0.23065072  0.25502571  0.10336436    -0.18700
C610        C  0.23233087  0.27543675  0.09381750    -0.07600
C611        C  0.21561756  0.25463385  0.12212445    -0.14000
C612        C  0.21528687  0.23714410  0.13037075    -0.13800
C613        C  0.21623343  0.21547934  0.14010321     0.25000
C614        C  0.22620648  0.17399735  0.14024546    -0.19200
C615        C  0.22841662  0.15297014  0.14967768    -0.07600
C616        C  0.22069434  0.17321206  0.15910275    -0.03700
C617        C  0.21035322  0.21482819  0.15890638    -0.09000
C618        C  0.20812818  0.23583515  0.14944767    -0.16700
H619        H  0.19729188  0.36839057  0.10175525     0.11500
H620        H  0.19404888  0.33230876  0.11842852     0.10800
H621        H  0.24023910  0.22343995  0.10380968     0.10700
H622        H  0.24333019  0.25927283  0.08703261     0.11200
H623        H  0.23257254  0.15795567  0.13306539     0.11300
H624        H  0.23643274  0.12093002  0.14959909     0.11200
H625        H  0.20420296  0.23113696  0.16605429     0.11400
H626        H  0.20039531  0.26795973  0.14942847     0.10200
C627        C  0.61459764  0.55471049  0.06727554    -0.03600
C628        C  0.61059064  0.51207441  0.06721504    -0.09400
C629        C  0.57187892  0.49411744  0.06771105    -0.17000
C630        C  0.53671172  0.51852893  0.06827692     0.25100
C631        C  0.54052113  0.56097933  0.06831669    -0.18700
C632        C  0.57912288  0.57895186  0.06782081    -0.07600
C633        C  0.49669434  0.50028563  0.06881245    -0.14000
C634        C  0.46279735  0.48593197  0.06920187    -0.13800
C635        C  0.42213138  0.46907973  0.06943864     0.25000
C636        C  0.38876824  0.49218874  0.06592680    -0.19200
C637        C  0.34964762  0.47518315  0.06565609    -0.07600
C638        C  0.34342808  0.43472279  0.06884647    -0.03700
C639        C  0.37686569  0.41206085  0.07261963    -0.09000
C640        C  0.41593235  0.42915312  0.07291505    -0.16700
H641        H  0.63734283  0.49265146  0.06677196     0.11500
H642        H  0.56939064  0.46122446  0.06765481     0.10800
H643        H  0.51361722  0.58023389  0.06873321     0.10700
H644        H  0.58119704  0.61186342  0.06785536     0.11200
H645        H  0.39309091  0.52315447  0.06324393     0.11300
H646        H  0.32445060  0.49337559  0.06273944     0.11200
H647        H  0.37293783  0.38090720  0.07518869     0.11400
H648        H  0.44140678  0.41099532  0.07569582     0.10200
C649        C  0.84498984  0.55991110  0.06478269    -0.03600
C650        C  0.85121539  0.51788072  0.06625579    -0.09400
C651        C  0.89078646  0.50144767  0.06632522    -0.17000
C652        C  0.92467713  0.52675532  0.06493852     0.25100
C653        C  0.91871051  0.56862888  0.06345899    -0.18700
C654        C  0.87918025  0.58510289  0.06337670    -0.07600
C655        C  0.96546427  0.50973832  0.06503187    -0.14000
C656        C  0.99927787  0.49477994  0.06510451    -0.13800
C657        C  0.03906676  0.47556574  0.06515863     0.25000
C658        C  0.07411092  0.49812385  0.06750266    -0.19200
C659        C  0.11256005  0.47920222  0.06758072    -0.07600
C660        C  0.11642371  0.43745943  0.06529983    -0.03700
C661        C  0.08111034  0.41506107  0.06296029    -0.09000
C662        C  0.04274587  0.43399684  0.06289307    -0.16700
H663        H  0.82551249  0.49773398  0.06736662     0.11500
H664        H  0.89494220  0.46899420  0.06747398     0.10800
H665        H  0.94461306  0.58857162  0.06237816     0.10700
H666        H  0.87537622  0.61758884  0.06224286     0.11200
H667        H  0.07172325  0.53030319  0.06927633     0.11300
H668        H  0.13923141  0.49720012  0.06941517     0.11200
H669        H  0.08312960  0.38287227  0.06118584     0.11400
H670        H  0.01591671  0.41617684  0.06107708     0.10200
C671        C  0.24055786  0.33381068  0.03562462    -0.03600
C672        C  0.24152217  0.29159865  0.03376317    -0.09400
C673        C  0.24785587  0.27663099  0.02368768    -0.17000
C674        C  0.25312331  0.30368250  0.01537258     0.25100
C675        C  0.25119271  0.34569777  0.01714688    -0.18700
C676        C  0.24494103  0.36068011  0.02719000    -0.07600
C677        C  0.26269543  0.28880881  0.00510970    -0.14000
C678        C  0.27315757  0.27886539  0.99647567    -0.13800
C679        C  0.28841157  0.26970785  0.98622484     0.25000
C680        C  0.26158342  0.26562550  0.97779917    -0.19200
C681        C  0.27688693  0.25878419  0.96778218    -0.07600
C682        C  0.31923354  0.25606613  0.96609169    -0.03700
C683        C  0.34587797  0.25985725  0.97460802    -0.09000
C684        C  0.33055230  0.26660814  0.98459655    -0.16700
H685        H  0.23813114  0.27021899  0.04011244     0.11500
H686        H  0.24936503  0.24403970  0.02241817     0.10800
H687        H  0.25528564  0.36693641  0.01078769     0.10700
H688        H  0.24419177  0.39332987  0.02837781     0.11200
H689        H  0.22891613  0.26820839  0.97894966     0.11300
H690        H  0.25567743  0.25614612  0.96135354     0.11200
H691        H  0.37862121  0.25799887  0.97353612     0.11400
H692        H  0.35163179  0.26992531  0.99103747     0.10200
C693        C  0.80322670  0.75499303  0.84335787    -0.03600
C694        C  0.82348485  0.74829586  0.85285471    -0.09400
C695        C  0.80217039  0.75086153  0.86225178    -0.17000
C696        C  0.76044433  0.76032278  0.86227654     0.25100
C697        C  0.74004540  0.76699674  0.85285091    -0.18700
C698        C  0.76127028  0.76428645  0.84344426    -0.07600
C699        C  0.73848777  0.76250763  0.87195778    -0.14000
C700        C  0.72006423  0.76309846  0.88007054    -0.13800
C701        C  0.69775654  0.76182395  0.88970421     0.25000
C702        C  0.65508682  0.76436536  0.88962455    -0.19200
C703        C  0.63320084  0.76087651  0.89890256    -0.07600
C704        C  0.65378293  0.75486951  0.90838104    -0.03700
C705        C  0.69667241  0.75303398  0.90842931    -0.09000
C706        C  0.71851217  0.75642208  0.89913437    -0.16700
H707        H  0.85573468  0.74089390  0.85301298     0.11500
H708        H  0.81822153  0.74541100  0.86949541     0.10800
H709        H  0.70773000  0.77419566  0.85276975     0.10700
H710        H  0.74489659  0.76956540  0.83624388     0.11200
H711        H  0.63870351  0.76851364  0.88237396     0.11300
H712        H  0.60018677  0.76257495  0.89865084     0.11200
H713        H  0.71328554  0.74847403  0.91562595     0.11400
H714        H  0.75152807  0.75432953  0.89928676     0.10200
C715        C  0.72123605  0.67365204  0.65846156    -0.03600
C716        C  0.71223241  0.71555390  0.65838259    -0.09400
C717        C  0.70839378  0.73657835  0.64896760    -0.17000
C718        C  0.71366057  0.71603124  0.63952573     0.25100
C719        C  0.72266463  0.67428792  0.63954301    -0.18700
C720        C  0.72634070  0.65317156  0.64895105    -0.07600
C721        C  0.71059249  0.73789308  0.62983392    -0.14000
C722        C  0.70917543  0.75613658  0.62169112    -0.13800
C723        C  0.70919753  0.77769750  0.61192495     0.25000
C724        C  0.72153270  0.75773360  0.60283469    -0.19200
C725        C  0.72324996  0.77894473  0.59341274    -0.07600
C726        C  0.71299879  0.82054009  0.59298212    -0.03700
C727        C  0.70011174  0.84028877  0.60211353    -0.09000
C728        C  0.69812486  0.81893264  0.61152349    -0.16700
H729        H  0.70801048  0.73203100  0.66559483     0.11500
H730        H  0.70146483  0.76887977  0.64905425     0.10800
H731        H  0.72694320  0.65808984  0.63228743     0.10700
H732        H  0.73334047  0.62090236  0.64878798     0.11200
H733        H  0.73027714  0.72587102  0.60305017     0.11300
H734        H  0.73337896  0.76301414  0.58650597     0.11200
H735        H  0.69185291  0.87226806  0.60198930     0.11400
H736        H  0.68848483  0.83470182  0.61850351     0.10200
C737        C  0.73915370  0.65636287  0.71623928    -0.03600
C738        C  0.73123661  0.63101379  0.72480726    -0.06200
C739        C  0.73763564  0.64509899  0.73493362    -0.17000
C740        C  0.75208592  0.68461415  0.73661242     0.25100
C741        C  0.75918292  0.71033310  0.72812679    -0.18700
C742        C  0.75260285  0.69636412  0.71799256    -0.07600
C743        C  0.76166692  0.69798051  0.74698902    -0.14000
C744        C  0.77184575  0.70809883  0.75562089    -0.13800
C745        C  0.78649626  0.71859203  0.76582887     0.25000
C746        C  0.82735751  0.72967276  0.76719171    -0.19200
C747        C  0.84258211  0.73730084  0.77715151    -0.07600
C748        C  0.81707586  0.73396001  0.78588326    -0.03700
C749        C  0.77578615  0.72386530  0.78444103    -0.09000
C750        C  0.76062153  0.71611013  0.77445992    -0.16700
H751        H  0.72070012  0.60011250  0.72367471     0.11500
H752        H  0.73208542  0.62491257  0.74143954     0.10800
H753        H  0.77051763  0.74091944  0.72933392     0.10700
H754        H  0.75899243  0.71648367  0.71152964     0.11200
H755        H  0.84765385  0.73170073  0.76057047     0.11300
H756        H  0.87446853  0.74517667  0.77803461     0.11200
H757        H  0.75548438  0.72110413  0.79103732     0.11400
H758        H  0.72895010  0.70751481  0.77349561     0.10200
C759        C  0.23559287  0.17798300  0.59299747    -0.03600
C760        C  0.24041738  0.15712209  0.60246728    -0.09400
C761        C  0.24484116  0.17865645  0.61176873    -0.17000
C762        C  0.24440139  0.22128390  0.61173785     0.25100
C763        C  0.23980673  0.24233177  0.60232883    -0.18700
C764        C  0.23545807  0.22081662  0.59300167    -0.07600
C765        C  0.24718534  0.24321160  0.62141386    -0.14000
C766        C  0.24778254  0.26086092  0.62964104    -0.13800
C767        C  0.24641921  0.28170584  0.63949643     0.25000
C768        C  0.23745211  0.32339536  0.63984051    -0.19200
C769        C  0.23456942  0.34346987  0.64939682    -0.07600
C770        C  0.24051035  0.32207892  0.65875811    -0.03700
C771        C  0.24982953  0.28024832  0.65835987    -0.09000
C772        C  0.25275601  0.26019939  0.64877618    -0.16700
H773        H  0.24073936  0.12414455  0.60268834     0.11500
H774        H  0.24827385  0.16204345  0.61899915     0.10800
H775        H  0.23928285  0.27532960  0.60221147     0.10700
H776        H  0.23181727  0.23764122  0.58581385     0.11200
H777        H  0.23237489  0.34034287  0.63272212     0.11300
H778        H  0.22742969  0.37571313  0.64946020     0.11200
H779        H  0.25469442  0.26305361  0.66544368     0.11400
H780        H  0.25963580  0.22789144  0.64860786     0.10200
C781        C  0.11602997  0.43555086  0.68472569    -0.03600
C782        C  0.08144954  0.41047046  0.68547052    -0.09400
C783        C  0.04212966  0.42721966  0.68501064    -0.17000
C784        C  0.03672896  0.46926732  0.68380066     0.25100
C785        C  0.07099050  0.49450537  0.68302930    -0.18700
C786        C  0.11041814  0.47777894  0.68349223    -0.07600
C787        C  0.99606820  0.48644057  0.68351661    -0.14000
C788        C  0.96206623  0.50089449  0.68347911    -0.13800
C789        C  0.92190757  0.51918775  0.68366508     0.25000
C790        C  0.91773941  0.56157037  0.68305455    -0.19200
C791        C  0.87905063  0.57966777  0.68347981    -0.07600
C792        C  0.84390844  0.55558719  0.68449485    -0.03700
C793        C  0.84821700  0.51300123  0.68503032    -0.09000
C794        C  0.88702421  0.49492541  0.68463471    -0.16700
H795        H  0.08478197  0.37785670  0.68644709     0.11500
H796        H  0.01593064  0.40736179  0.68564085     0.10800
H797        H  0.06723763  0.52711754  0.68211190     0.10700
H798        H  0.13646054  0.49783494  0.68291471     0.11200
H799        H  0.94444688  0.58067895  0.68230996     0.11300
H800        H  0.87665208  0.61253646  0.68303508     0.11200
H801        H  0.82166334  0.49374064  0.68583234     0.11400
H802        H  0.88983035  0.46208795  0.68513688     0.10200
C803        C  0.34623709  0.43690544  0.68692736    -0.03600
C804        C  0.38146886  0.41221954  0.68709203    -0.09400
C805        C  0.42028557  0.42975281  0.68675751    -0.17000
C806        C  0.42437501  0.47213219  0.68628681     0.25100
C807        C  0.38947309  0.49690896  0.68610020    -0.18700
C808        C  0.35061953  0.47942713  0.68641031    -0.07600
C809        C  0.46432992  0.49021839  0.68613604    -0.14000
C810        C  0.49776192  0.50543942  0.68613479    -0.13800
C811        C  0.53770288  0.52352489  0.68620567     0.25000
C812        C  0.54199136  0.56544460  0.68783465    -0.19200
C813        C  0.58079658  0.58299890  0.68789780    -0.07600
C814        C  0.61576175  0.55875257  0.68634655    -0.03700
C815        C  0.61120936  0.51669688  0.68472364    -0.09000
C816        C  0.57238083  0.49920739  0.68465496    -0.16700
H817        H  0.37901653  0.37936198  0.68744199     0.11500
H818        H  0.44707953  0.41027624  0.68689493     0.10800
H819        H  0.39228690  0.52974921  0.68573790     0.10700
H820        H  0.32403045  0.49914605  0.68625268     0.11200
H821        H  0.51535986  0.58454502  0.68904904     0.11300
H822        H  0.58344273  0.61549336  0.68916136     0.11200
H823        H  0.63763376  0.49735249  0.68349520     0.11400
H824        H  0.56940547  0.46673092  0.68338894     0.10200
C825        C  0.15691078  0.23741423  0.84310334    -0.03600
C826        C  0.13707260  0.23417315  0.85274891    -0.09400
C827        C  0.15974784  0.23297216  0.86196904    -0.17000
C828        C  0.20240922  0.23513845  0.86164376     0.25100
C829        C  0.22237046  0.23795918  0.85206682    -0.18700
C830        C  0.19978066  0.23897616  0.84284415    -0.07600
C831        C  0.22563221  0.23525475  0.87113933    -0.14000
C832        C  0.24450191  0.23594053  0.87918414    -0.13800
C833        C  0.26573459  0.23707188  0.88896839     0.25000
C834        C  0.30604394  0.22298594  0.88971734    -0.19200
C835        C  0.32631221  0.22371386  0.89929277    -0.07600
C836        C  0.30631419  0.23834443  0.90821633    -0.03700
C837        C  0.26589428  0.25245188  0.90738962    -0.09000
C838        C  0.24579328  0.25194464  0.89780776    -0.16700
H839        H  0.10409192  0.23274671  0.85316187     0.11500
H840        H  0.14401134  0.23071539  0.86934859     0.10800
H841        H  0.25536523  0.23968177  0.85173136     0.10700
H842        H  0.21582636  0.24150483  0.83551915     0.11200
H843        H  0.32174256  0.21139829  0.88291768     0.11300
H844        H  0.35747723  0.21266761  0.89973222     0.11200
H845        H  0.24992677  0.26412915  0.91413400     0.11400
H846        H  0.21464063  0.26302045  0.89729963     0.10200
C847        C  0.03947435  0.36057504  0.81684268    -0.03600
C848        C  0.99739382  0.36655086  0.81838635    -0.09400
C849        C  0.98070009  0.40592519  0.81829940    -0.17000
C850        C  0.00580544  0.43975230  0.81664487     0.25100
C851        C  0.04772402  0.43400097  0.81509745    -0.18700
C852        C  0.06446499  0.39471932  0.81520909    -0.07600
C853        C  0.98863639  0.48032332  0.81660487    -0.14000
C854        C  0.97403935  0.51418608  0.81667789    -0.13800
C855        C  0.95587130  0.55431336  0.81686903     0.25000
C856        C  0.98053349  0.58906299  0.81707496    -0.19200
C857        C  0.96275370  0.62795655  0.81722534    -0.07600
C858        C  0.92005315  0.63252101  0.81714709    -0.03700
C859        C  0.89553435  0.59746966  0.81700798    -0.09000
C860        C  0.91334016  0.55866582  0.81687254    -0.16700
H861        H  0.97742915  0.34082747  0.81964738     0.11500
H862        H  0.94821583  0.40998154  0.81951537     0.10800
H863        H  0.06748794  0.45987854  0.81380459     0.10700
H864        H  0.09696052  0.39105165  0.81395646     0.11200
H865        H  0.01348608  0.58610191  0.81707999     0.11300
H866        H  0.98236637  0.65441581  0.81729816     0.11200
H867        H  0.86256243  0.60004320  0.81693018     0.11400
H868        H  0.89391410  0.53205061  0.81672834     0.10200
C869        C  0.03682505  0.13136680  0.81530791    -0.03600
C870        C  0.99417274  0.12718927  0.81484576    -0.09400
C871        C  0.97654811  0.08846708  0.81444929    -0.17000
C872        C  0.00135578  0.05359111  0.81454200     0.25100
C873        C  0.04381385  0.05755807  0.81503487    -0.18700
C874        C  0.06146702  0.09617978  0.81540385    -0.07600
C875        C  0.98343506  0.01368144  0.81415372    -0.14000
C876        C  0.96906322  0.97995655  0.81388521    -0.13800
C877        C  0.95184574  0.93970831  0.81368614     0.25000
C878        C  0.97734998  0.90533272  0.81357405    -0.19200
C879        C  0.96049554  0.86622508  0.81364536    -0.07600
C880        C  0.91791042  0.86114817  0.81383570    -0.03700
C881        C  0.89256521  0.89585251  0.81378508    -0.09000
C882        C  0.90944771  0.93485746  0.81373498    -0.16700
H883        H  0.97450947  0.15380300  0.81473312     0.11500
H884        H  0.94363450  0.08572951  0.81406356     0.10800
H885        H  0.06329295  0.03078498  0.81512031     0.10700
H886        H  0.09440674  0.09850494  0.81576103     0.11200
H887        H  0.01022799  0.90875775  0.81351513     0.11300
H888        H  0.98071111  0.84002322  0.81364198     0.11200
H889        H  0.85966110  0.89285781  0.81391105     0.11400
H890        H  0.88942438  0.96122813  0.81381215     0.10200
C891        C  0.13602661  0.25430153  0.78575952    -0.03600
C892        C  0.10946800  0.25183414  0.77718763    -0.09400
C893        C  0.12338374  0.26103837  0.76718911    -0.17000
C894        C  0.16397339  0.27273194  0.76564243     0.25100
C895        C  0.19091452  0.27399947  0.77409245    -0.18700
C896        C  0.17706942  0.26475984  0.78409544    -0.07600
C897        C  0.17746479  0.28514528  0.75547893    -0.14000
C898        C  0.18793315  0.29674171  0.74699731    -0.13800
C899        C  0.19913799  0.31117204  0.73682501     0.25000
C900        C  0.20569238  0.35276085  0.73513234    -0.19200
C901        C  0.21474427  0.36699079  0.72515085    -0.07600
C902        C  0.21728033  0.33974947  0.71673830    -0.03700
C903        C  0.21134513  0.29796631  0.71853731    -0.09000
C904        C  0.20231209  0.28379590  0.72852451    -0.16700
H905        H  0.07771014  0.24382378  0.77824641     0.11500
H906        H  0.10226992  0.25991266  0.76070427     0.10800
H907        H  0.22239028  0.28299327  0.77298511     0.10700
H908        H  0.19817073  0.26691940  0.79055913     0.11200
H909        H  0.20325917  0.37424346  0.74149505     0.11300
H910        H  0.21907303  0.39935334  0.72398447     0.11200
H911        H  0.21302713  0.27633689  0.71219818     0.11400
H912        H  0.19724880  0.25155938  0.72974360     0.10200
loop_ 
_geom_bond_atom_site_label_1 
_geom_bond_atom_site_label_2 
_geom_bond_distance 
_geom_bond_site_symmetry_2 
_ccdc_geom_bond_type 
In1           O3   2.250       .  S
In1           O4   2.240       .  S
In1          O12   2.235       .  S
In1           O6   2.251       .  S
In1           O8   2.263       .  S
In1           O9   2.246       .  S
In1          O10   2.241       .  S
In1          O13   2.245       .  S
C2            O8   1.263       .  A
C2           O10   1.259       .  A
C2          C847   1.481       .  S
O3           C11   1.262       .  A
O4           C11   1.261       .  A
C5           O12   1.261       .  A
C5            O6   1.263       .  A
C5          C869   1.477       .  S
C7            O9   1.261       .  A
C7           O13   1.261       .  A
C7          C891   1.477       .  S
C11         C825   1.476       .  S
In14         O16   2.241       .  S
In14         O17   2.259       .  S
In14         O25   2.245       .  S
In14         O19   2.255       .  S
In14         O21   2.261       .  S
In14         O22   2.248       .  S
In14         O23   2.241       .  S
In14         O26   2.242       .  S
C15          O21   1.264       .  A
C15          O23   1.261       .  A
C15         C781   1.482       .  S
O16          C24   1.260       .  A
O17          C24   1.263       .  A
C18          O25   1.260       .  A
C18          O19   1.263       .  A
C18         C803   1.479       .  S
C20          O22   1.263       .  A
C20          O26   1.261       .  A
C20         C902   1.478       .  S
C24         C770   1.480       .  S
In27         O29   2.245       .  S
In27         O30   2.246       .  S
In27         O38   2.239       .  S
In27         O32   2.243       .  S
In27         O34   2.254       .  S
In27         O35   2.248       .  S
In27         O36   2.240       .  S
In27         O39   2.241       .  S
C28          O34   1.262       .  A
C28          O36   1.260       .  A
C28         C792   1.479       .  S
O29          C37   1.261       .  A
O30          C37   1.262       .  A
C31          O38   1.261       .  A
C31          O32   1.262       .  A
C31         C814   1.476       .  S
C33          O35   1.262       .  A
C33          O39   1.261       .  A
C33         C737   1.477       .  S
C37         C715   1.477       .  S
In40         O42   2.252       .  S
In40         O43   2.245       .  S
In40         O51   2.239       .  S
In40         O45   2.258       .  S
In40         O47   2.257       .  S
In40         O48   2.250       .  S
In40         O49   2.240       .  S
In40         O52   2.240       .  S
C41          O47   1.263       .  A
C41          O49   1.260       .  A
C41         C858   1.480       .  S
O42          C50   1.262       .  A
O43          C50   1.261       .  A
C44          O51   1.260       .  A
C44          O45   1.262       .  A
C44         C880   1.478       .  S
C46          O48   1.261       .  A
C46          O52   1.260       .  A
C46         C748   1.477       .  S
C50         C693   1.479       .  S
In53         O55   2.234       .  S
In53         O56   2.253       .  S
In53         O64   2.248       .  S
In53         O58   2.253       .  S
In53         O60   2.256       .  S
In53         O61   2.261       .  S
In53         O62   2.251       .  S
In53         O65   2.244       .  S
C54          O60   1.261       .  A
C54          O62   1.260       .  A
C54         C638   1.481       .  S
O55          C63   1.261       .  A
O56          C63   1.263       .  A
C57          O64   1.261       .  A
C57          O58   1.262       .  A
C57         C660   1.481       .  S
C59          O61   1.261       .  A
C59          O65   1.260       .  A
C59         C671   1.480       .  S
C63         C605   1.476       .  S
In66         O68   2.241       .  S
In66         O69   2.241       .  S
In66         O77   2.235       .  S
In66         O71   2.251       .  S
In66         O73   2.257       .  S
In66         O74   2.251       .  S
In66         O75   2.236       .  S
In66         O78   2.240       .  S
C67          O73   1.263       .  A
C67          O75   1.259       .  A
C67         C561   1.478       .  S
O68          C76   1.260       .  A
O69          C76   1.262       .  A
C70          O77   1.261       .  A
C70          O71   1.263       .  A
C70         C583   1.477       .  S
C72          O74   1.262       .  A
C72          O78   1.262       .  A
C72         C682   1.479       .  S
C76         C836   1.474       .  S
In79         O81   2.241       .  S
In79         O82   2.242       .  S
In79         O90   2.238       .  S
In79         O84   2.254       .  S
In79         O86   2.255       .  S
In79         O87   2.247       .  S
In79         O88   2.243       .  S
In79         O91   2.251       .  S
C80          O86   1.262       .  A
C80          O88   1.259       .  A
C80         C572   1.478       .  S
O81          C89   1.262       .  A
O82          C89   1.262       .  A
C83          O90   1.261       .  A
C83          O84   1.263       .  A
C83         C594   1.478       .  S
C85          O87   1.260       .  A
C85          O91   1.260       .  A
C85         C539   1.479       .  S
C89         C704   1.476       .  S
In92         O94   2.251       .  S
In92         O95   2.254       .  S
In92        O103   2.250       .  S
In92         O97   2.259       .  S
In92         O99   2.265       .  S
In92        O100   2.256       .  S
In92        O101   2.247       .  S
In92        O104   2.248       .  S
C93          O99   1.263       .  A
C93         O101   1.260       .  A
C93         C627   1.483       .  S
O94         C102   1.261       .  A
O95         C102   1.262       .  A
C96         O103   1.261       .  A
C96          O97   1.263       .  A
C96         C649   1.484       .  S
C98         O100   1.262       .  A
C98         O104   1.261       .  A
C98         C550   1.481       .  S
C102        C528   1.480       .  S
In105       O107   2.242       .  S
In105       O108   2.248       .  S
In105       O116   2.239       .  S
In105       O110   2.259       .  S
In105       O112   2.256       .  S
In105       O113   2.242       .  S
In105       O114   2.237       .  S
In105       O117   2.241       .  S
C106        O112   1.263       .  A
C106        O114   1.260       .  A
C106        C462   1.478       .  S
O107        C115   1.261       .  A
O108        C115   1.261       .  A
C109        O116   1.260       .  A
C109        O110   1.263       .  A
C109        C484   1.480       .  S
C111        O113   1.262       .  A
C111        O117   1.262       .  A
C111        C495   1.476       .  S
C115        C429   1.477       .  S
In118       O120   2.240       .  S
In118       O121   2.243       .  S
In118       O129   2.241       .  S
In118       O123   2.261       .  S
In118       O125   2.262       .  S
In118       O126   2.251       .  S
In118       O127   2.242       .  S
In118       O130   2.243       .  S
C119        O125   1.263       .  A
C119        O127   1.260       .  A
C119        C385   1.481       .  S
O120        C128   1.262       .  A
O121        C128   1.262       .  A
C122        O129   1.260       .  A
C122        O123   1.263       .  A
C122        C418   1.481       .  S
C124        O126   1.261       .  A
C124        O130   1.260       .  A
C124        C506   1.477       .  S
C128        C517   1.477       .  S
In131       O133   2.243       .  S
In131       O134   2.250       .  S
In131       O142   2.239       .  S
In131       O136   2.255       .  S
In131       O138   2.252       .  S
In131       O139   2.245       .  S
In131       O140   2.242       .  S
In131       O143   2.240       .  S
C132        O138   1.262       .  A
C132        O140   1.260       .  A
C132        C451   1.478       .  S
O133        C141   1.260       .  A
O134        C141   1.261       .  A
C135        O142   1.260       .  A
C135        O136   1.262       .  A
C135        C473   1.479       .  S
C137        O139   1.262       .  A
C137        O143   1.261       .  A
C137        C363   1.476       .  S
C141        C341   1.477       .  S
In144       O146   2.242       .  S
In144       O147   2.251       .  S
In144       O155   2.249       .  S
In144       O149   2.257       .  S
In144       O151   2.255       .  S
In144       O152   2.249       .  S
In144       O153   2.240       .  S
In144       O156   2.243       .  S
C145        O151   1.263       .  A
C145        O153   1.260       .  A
C145        C396   1.479       .  S
O146        C154   1.260       .  A
O147        C154   1.261       .  A
C148        O155   1.260       .  A
C148        O149   1.262       .  A
C148        C407   1.482       .  S
C150        O152   1.261       .  A
C150        O156   1.261       .  A
C150        C374   1.477       .  S
C154        C616   1.477       .  S
In157       O159   2.245       .  S
In157       O160   2.256       .  S
In157       O168   2.241       .  S
In157       O162   2.256       .  S
In157       O164   2.258       .  S
In157       O165   2.259       .  S
In157       O166   2.244       .  S
In157       O169   2.250       .  S
C158        O164   1.262       .  A
C158        O166   1.260       .  A
C158        C286   1.480       .  S
O159        C167   1.260       .  A
O160        C167   1.262       .  A
C161        O168   1.261       .  A
C161        O162   1.262       .  A
C161        C297   1.480       .  S
C163        O165   1.262       .  A
C163        O169   1.261       .  A
C163        C319   1.483       .  S
C167        C440   1.480       .  S
In170       O172   2.252       .  S
In170       O173   2.247       .  S
In170       O181   2.244       .  S
In170       O175   2.257       .  S
In170       O177   2.263       .  S
In170       O178   2.250       .  S
In170       O179   2.246       .  S
In170       O182   2.252       .  S
C171        O177   1.263       .  A
C171        O179   1.260       .  A
C171        C231   1.482       .  S
O172        C180   1.261       .  A
O173        C180   1.262       .  A
C174        O181   1.260       .  A
C174        O175   1.263       .  A
C174        C264   1.480       .  S
C176        O178   1.262       .  A
C176        O182   1.261       .  A
C176        C330   1.481       .  S
C180        C726   1.479       .  S
In183       O185   2.241       .  S
In183       O186   2.248       .  S
In183       O194   2.252       .  S
In183       O188   2.256       .  S
In183       O190   2.258       .  S
In183       O191   2.249       .  S
In183       O192   2.250       .  S
In183       O195   2.242       .  S
C184        O190   1.261       .  A
C184        O192   1.260       .  A
C184        C242   1.481       .  S
O185        C193   1.261       .  A
O186        C193   1.261       .  A
C187        O194   1.261       .  A
C187        O188   1.262       .  A
C187        C253   1.482       .  S
C189        O191   1.261       .  A
C189        O195   1.260       .  A
C189        C209   1.476       .  S
C193        C759   1.477       .  S
In196       O198   2.239       .  S
In196       O199   2.242       .  S
In196       O207   2.245       .  S
In196       O201   2.255       .  S
In196       O203   2.265       .  S
In196       O204   2.248       .  S
In196       O205   2.237       .  S
In196       O208   2.235       .  S
C197        O203   1.263       .  A
C197        O205   1.260       .  A
C197        C275   1.481       .  S
O198        C206   1.261       .  A
O199        C206   1.261       .  A
C200        O207   1.260       .  A
C200        O201   1.263       .  A
C200        C308   1.480       .  S
C202        O204   1.261       .  A
C202        O208   1.261       .  A
C202        C220   1.474       .  S
C206        C352   1.475       .  S
C209        C210   1.406       .  A
C209        C214   1.405       .  A
C210        C211   1.399       .  A
C210        H223   1.083       .  S
C211        C212   1.400       .  A
C211        H224   1.084       .  S
C212        C213   1.399       .  A
C212        C215   1.437       .  S
C213        C214   1.397       .  A
C213        H225   1.084       .  S
C214        H226   1.083       .  S
C215        C216   1.204       .  T
C216        C217   1.437       .  S
C217        C218   1.398       .  A
C217        C222   1.400       .  A
C218        C219   1.395       .  A
C218        H227   1.084       .  S
C219        C220   1.405       .  A
C219        H228   1.083       .  S
C220        C221   1.406       .  A
C221        C222   1.400       .  A
C221        H229   1.083       .  S
C222        H230   1.083       .  S
C231        C232   1.406       .  A
C231        C236   1.408       .  A
C232        C233   1.401       .  A
C232        H245   1.083       .  S
C233        C234   1.402       .  A
C233        H246   1.083   1_565  S
C234        C235   1.400       .  A
C234        C237   1.445       .  S
C235        C236   1.400       .  A
C235        H247   1.084       .  S
C236        H248   1.083       .  S
C237        C238   1.209       .  T
C238        C239   1.445   1_665  S
C239        C240   1.402   1_545  A
C239        C244   1.400       .  A
C240        C241   1.402   1_565  A
C240        H249   1.083       .  S
C241        C242   1.407       .  A
C241        H250   1.083   1_545  S
C242        C243   1.406       .  A
C243        C244   1.399       .  A
C243        H251   1.083       .  S
C244        H252   1.083       .  S
C253        C254   1.407       .  A
C253        C258   1.407       .  A
C254        C255   1.401       .  A
C254        H267   1.083       .  S
C255        C256   1.401       .  A
C255        H268   1.083   1_545  S
C256        C257   1.400       .  A
C256        C259   1.444       .  S
C257        C258   1.400       .  A
C257        H269   1.083       .  S
C258        H270   1.083       .  S
C259        C260   1.209   1_545  T
C260        C261   1.444       .  S
C261        C262   1.401       .  A
C261        C266   1.400       .  A
C262        C263   1.400       .  A
C262        H271   1.083   1_565  S
C263        C264   1.406       .  A
C263        H272   1.083       .  S
C264        C265   1.407       .  A
C265        C266   1.400       .  A
C265        H273   1.083       .  S
C266        H274   1.083       .  S
C275        C276   1.406       .  A
C275        C280   1.407   1_455  A
C276        C277   1.397       .  A
C276        H289   1.083       .  S
C277        C278   1.398   1_455  A
C277        H290   1.084       .  S
C278        C279   1.402       .  A
C278        C281   1.442       .  S
C279        C280   1.402       .  A
C279        H291   1.083       .  S
C280        H292   1.083       .  S
C281        C282   1.208   1_545  T
C282        C283   1.442       .  S
C283        C284   1.399       .  A
C283        C288   1.402       .  A
C284        C285   1.398       .  A
C284        H293   1.084       .  S
C285        C286   1.406       .  A
C285        H294   1.083       .  S
C286        C287   1.406       .  A
C287        C288   1.401       .  A
C287        H295   1.083       .  S
C288        H296   1.083   1_655  S
C297        C298   1.406       .  A
C297        C302   1.407       .  A
C298        C299   1.398       .  A
C298        H311   1.083       .  S
C299        C300   1.400       .  A
C299        H312   1.084       .  S
C300        C301   1.402       .  A
C300        C303   1.444       .  S
C301        C302   1.402       .  A
C301        H313   1.083   1_655  S
C302        H314   1.083       .  S
C303        C304   1.208       .  T
C304        C305   1.444   1_655  S
C305        C306   1.400       .  A
C305        C310   1.401   1_455  A
C306        C307   1.400       .  A
C306        H315   1.084       .  S
C307        C308   1.407       .  A
C307        H316   1.083       .  S
C308        C309   1.406   1_455  A
C309        C310   1.400       .  A
C309        H317   1.083       .  S
C310        H318   1.083       .  S
C319        C320   1.407       .  A
C319        C324   1.406       .  A
C320        C321   1.403       .  A
C320        H333   1.083       .  S
C321        C322   1.402       .  A
C321        H334   1.083       .  S
C322        C323   1.400       .  A
C322        C325   1.445       .  S
C323        C324   1.399       .  A
C323        H335   1.084       .  S
C324        H336   1.083       .  S
C325        C326   1.209       .  T
C326        C327   1.445       .  S
C327        C328   1.401       .  A
C327        C332   1.401       .  A
C328        C329   1.401       .  A
C328        H337   1.083       .  S
C329        C330   1.407       .  A
C329        H338   1.083       .  S
C330        C331   1.406       .  A
C331        C332   1.400       .  A
C331        H339   1.083       .  S
C332        H340   1.083       .  S
C341        C342   1.406       .  A
C341        C346   1.406       .  A
C342        C343   1.398       .  A
C342        H355   1.083       .  S
C343        C344   1.399       .  A
C343        H356   1.084       .  S
C344        C345   1.400       .  A
C344        C347   1.439       .  S
C345        C346   1.399       .  A
C345        H357   1.083       .  S
C346        H358   1.083       .  S
C347        C348   1.205       .  T
C348        C349   1.438       .  S
C349        C350   1.399       .  A
C349        C354   1.400       .  A
C350        C351   1.397       .  A
C350        H359   1.084       .  S
C351        C352   1.405       .  A
C351        H360   1.083       .  S
C352        C353   1.406       .  A
C353        C354   1.399       .  A
C353        H361   1.083       .  S
C354        H362   1.083       .  S
C363        C364   1.405       .  A
C363        C368   1.406       .  A
C364        C365   1.397       .  A
C364        H377   1.083       .  S
C365        C366   1.399       .  A
C365        H378   1.084       .  S
C366        C367   1.400       .  A
C366        C369   1.439       .  S
C367        C368   1.400       .  A
C367        H379   1.083       .  S
C368        H380   1.083       .  S
C369        C370   1.206       .  T
C370        C371   1.439       .  S
C371        C372   1.400       .  A
C371        C376   1.400       .  A
C372        C373   1.397       .  A
C372        H381   1.084       .  S
C373        C374   1.406       .  A
C373        H382   1.083       .  S
C374        C375   1.406       .  A
C375        C376   1.399       .  A
C375        H383   1.083       .  S
C376        H384   1.083       .  S
C385        C386   1.406       .  A
C385        C390   1.407       .  A
C386        C387   1.401       .  A
C386        H399   1.083       .  S
C387        C388   1.402       .  A
C387        H400   1.083   1_565  S
C388        C389   1.399       .  A
C388        C391   1.443       .  S
C389        C390   1.399       .  A
C389        H401   1.083       .  S
C390        H402   1.083       .  S
C391        C392   1.208   1_565  T
C392        C393   1.442       .  S
C393        C394   1.401   1_545  A
C393        C398   1.399       .  A
C394        C395   1.401   1_565  A
C394        H403   1.083       .  S
C395        C396   1.406       .  A
C395        H404   1.083   1_545  S
C396        C397   1.406       .  A
C397        C398   1.398       .  A
C397        H405   1.083       .  S
C398        H406   1.083       .  S
C407        C408   1.407       .  A
C407        C412   1.407       .  A
C408        C409   1.400       .  A
C408        H421   1.083       .  S
C409        C410   1.400       .  A
C409        H422   1.083       .  S
C410        C411   1.401   1_545  A
C410        C413   1.445   1_445  S
C411        C412   1.402   1_565  A
C411        H423   1.083       .  S
C412        H424   1.083   1_545  S
C413        C414   1.209       .  T
C414        C415   1.444       .  S
C415        C416   1.400       .  A
C415        C420   1.402       .  A
C416        C417   1.399       .  A
C416        H425   1.083       .  S
C417        C418   1.407       .  A
C417        H426   1.083       .  S
C418        C419   1.406       .  A
C419        C420   1.401       .  A
C419        H427   1.083       .  S
C420        H428   1.083   1_565  S
C429        C430   1.406       .  A
C429        C434   1.406       .  A
C430        C431   1.399       .  A
C430        H443   1.083       .  S
C431        C432   1.401       .  A
C431        H444   1.083       .  S
C432        C433   1.400       .  A
C432        C435   1.441       .  S
C433        C434   1.398       .  A
C433        H445   1.084       .  S
C434        H446   1.083       .  S
C435        C436   1.207       .  T
C436        C437   1.441       .  S
C437        C438   1.401       .  A
C437        C442   1.399       .  A
C438        C439   1.400       .  A
C438        H447   1.083       .  S
C439        C440   1.406       .  A
C439        H448   1.083       .  S
C440        C441   1.407       .  A
C441        C442   1.399       .  A
C441        H449   1.083       .  S
C442        H450   1.084       .  S
C451        C452   1.406       .  A
C451        C456   1.406       .  A
C452        C453   1.400       .  A
C452        H465   1.083       .  S
C453        C454   1.401       .  A
C453        H466   1.083       .  S
C454        C455   1.400       .  A
C454        C457   1.440       .  S
C455        C456   1.398       .  A
C455        H467   1.084       .  S
C456        H468   1.083       .  S
C457        C458   1.206   1_545  T
C458        C459   1.441       .  S
C459        C460   1.401       .  A
C459        C464   1.399       .  A
C460        C461   1.400       .  A
C460        H469   1.083       .  S
C461        C462   1.405       .  A
C461        H470   1.083       .  S
C462        C463   1.407       .  A
C463        C464   1.398       .  A
C463        H471   1.083       .  S
C464        H472   1.084       .  S
C473        C474   1.406       .  A
C473        C478   1.406       .  A
C474        C475   1.398       .  A
C474        H487   1.083       .  S
C475        C476   1.399       .  A
C475        H488   1.084       .  S
C476        C477   1.402       .  A
C476        C479   1.442       .  S
C477        C478   1.401       .  A
C477        H489   1.083       .  S
C478        H490   1.083       .  S
C479        C480   1.208       .  T
C480        C481   1.442       .  S
C481        C482   1.399       .  A
C481        C486   1.402       .  A
C482        C483   1.398       .  A
C482        H491   1.084       .  S
C483        C484   1.407       .  A
C483        H492   1.083       .  S
C484        C485   1.406       .  A
C485        C486   1.401       .  A
C485        H493   1.083       .  S
C486        H494   1.083       .  S
C495        C496   1.405       .  A
C495        C500   1.406       .  A
C496        C497   1.398       .  A
C496        H509   1.083       .  S
C497        C498   1.400       .  A
C497        H510   1.084       .  S
C498        C499   1.400       .  A
C498        C501   1.439       .  S
C499        C500   1.399       .  A
C499        H511   1.083       .  S
C500        H512   1.083       .  S
C501        C502   1.205       .  T
C502        C503   1.439       .  S
C503        C504   1.399       .  A
C503        C508   1.400       .  A
C504        C505   1.397       .  A
C504        H513   1.084       .  S
C505        C506   1.405       .  A
C505        H514   1.083       .  S
C506        C507   1.406       .  A
C507        C508   1.400       .  A
C507        H515   1.083       .  S
C508        H516   1.083       .  S
C517        C518   1.406       .  A
C517        C522   1.406       .  A
C518        C519   1.398       .  A
C518        H531   1.083       .  S
C519        C520   1.400       .  A
C519        H532   1.083       .  S
C520        C521   1.401       .  A
C520        C523   1.441       .  S
C521        C522   1.399       .  A
C521        H533   1.084       .  S
C522        H534   1.083       .  S
C523        C524   1.207       .  T
C524        C525   1.442       .  S
C525        C526   1.400       .  A
C525        C530   1.401       .  A
C526        C527   1.400       .  A
C526        H535   1.083       .  S
C527        C528   1.406       .  A
C527        H536   1.083       .  S
C528        C529   1.406       .  A
C529        C530   1.400       .  A
C529        H537   1.083       .  S
C530        H538   1.084       .  S
C539        C540   1.406       .  A
C539        C544   1.406       .  A
C540        C541   1.399       .  A
C540        H553   1.083       .  S
C541        C542   1.401       .  A
C541        H554   1.084       .  S
C542        C543   1.401       .  A
C542        C545   1.443       .  S
C543        C544   1.400       .  A
C543        H555   1.083       .  S
C544        H556   1.083       .  S
C545        C546   1.208   1_556  T
C546        C547   1.443       .  S
C547        C548   1.401       .  A
C547        C552   1.400       .  A
C548        C549   1.401       .  A
C548        H557   1.083       .  S
C549        C550   1.407       .  A
C549        H558   1.083       .  S
C550        C551   1.406       .  A
C551        C552   1.399       .  A
C551        H559   1.083       .  S
C552        H560   1.084       .  S
C561        C562   1.407       .  A
C561        C566   1.405       .  A
C562        C563   1.398       .  A
C562        H575   1.083       .  S
C563        C564   1.400       .  A
C563        H576   1.084       .  S
C564        C565   1.401       .  A
C564        C567   1.442       .  S
C565        C566   1.400       .  A
C565        H577   1.083       .  S
C566        H578   1.083       .  S
C567        C568   1.207       .  T
C568        C569   1.442       .  S
C569        C570   1.400       .  A
C569        C574   1.400       .  A
C570        C571   1.400       .  A
C570        H579   1.084       .  S
C571        C572   1.407       .  A
C571        H580   1.083       .  S
C572        C573   1.405       .  A
C573        C574   1.399       .  A
C573        H581   1.083       .  S
C574        H582   1.083       .  S
C583        C584   1.406       .  A
C583        C588   1.406       .  A
C584        C585   1.398       .  A
C584        H597   1.083       .  S
C585        C586   1.399       .  A
C585        H598   1.084       .  S
C586        C587   1.401       .  A
C586        C589   1.439       .  S
C587        C588   1.399       .  A
C587        H599   1.083       .  S
C588        H600   1.083       .  S
C589        C590   1.206   1_545  T
C590        C591   1.439       .  S
C591        C592   1.399       .  A
C591        C596   1.401       .  A
C592        C593   1.397       .  A
C592        H601   1.084       .  S
C593        C594   1.406       .  A
C593        H602   1.083       .  S
C594        C595   1.406       .  A
C595        C596   1.400       .  A
C595        H603   1.083       .  S
C596        H604   1.083       .  S
C605        C606   1.406       .  A
C605        C610   1.406       .  A
C606        C607   1.397       .  A
C606        H619   1.083       .  S
C607        C608   1.399       .  A
C607        H620   1.083       .  S
C608        C609   1.401       .  A
C608        C611   1.440       .  S
C609        C610   1.400       .  A
C609        H621   1.084       .  S
C610        H622   1.083       .  S
C611        C612   1.206       .  T
C612        C613   1.440       .  S
C613        C614   1.399       .  A
C613        C618   1.401       .  A
C614        C615   1.397       .  A
C614        H623   1.084       .  S
C615        C616   1.406       .  A
C615        H624   1.083       .  S
C616        C617   1.406       .  A
C617        C618   1.400       .  A
C617        H625   1.083       .  S
C618        H626   1.083       .  S
C627        C628   1.407       .  A
C627        C632   1.407       .  A
C628        C629   1.403       .  A
C628        H641   1.083       .  S
C629        C630   1.402       .  A
C629        H642   1.083       .  S
C630        C631   1.400       .  A
C630        C633   1.446       .  S
C631        C632   1.400       .  A
C631        H643   1.083       .  S
C632        H644   1.083       .  S
C633        C634   1.209       .  T
C634        C635   1.445       .  S
C635        C636   1.401       .  A
C635        C640   1.401       .  A
C636        C637   1.401       .  A
C636        H645   1.083       .  S
C637        C638   1.406       .  A
C637        H646   1.083       .  S
C638        C639   1.407       .  A
C639        C640   1.400       .  A
C639        H647   1.083       .  S
C640        H648   1.083       .  S
C649        C650   1.407       .  A
C649        C654   1.407       .  A
C650        C651   1.402       .  A
C650        H663   1.083       .  S
C651        C652   1.401       .  A
C651        H664   1.084       .  S
C652        C653   1.401       .  A
C652        C655   1.446       .  S
C653        C654   1.401       .  A
C653        H665   1.083       .  S
C654        H666   1.083       .  S
C655        C656   1.209       .  T
C656        C657   1.445   1_655  S
C657        C658   1.402       .  A
C657        C662   1.400       .  A
C658        C659   1.402       .  A
C658        H667   1.083       .  S
C659        C660   1.407       .  A
C659        H668   1.083       .  S
C660        C661   1.406       .  A
C661        C662   1.399       .  A
C661        H669   1.083       .  S
C662        H670   1.083       .  S
C671        C672   1.407       .  A
C671        C676   1.406       .  A
C672        C673   1.402       .  A
C672        H685   1.083       .  S
C673        C674   1.401       .  A
C673        H686   1.083       .  S
C674        C675   1.399       .  A
C674        C677   1.442       .  S
C675        C676   1.398       .  A
C675        H687   1.084       .  S
C676        H688   1.083       .  S
C677        C678   1.208   1_554  T
C678        C679   1.442       .  S
C679        C680   1.401       .  A
C679        C684   1.400       .  A
C680        C681   1.401       .  A
C680        H689   1.083       .  S
C681        C682   1.407       .  A
C681        H690   1.083       .  S
C682        C683   1.406       .  A
C683        C684   1.398       .  A
C683        H691   1.083       .  S
C684        H692   1.084       .  S
C693        C694   1.406       .  A
C693        C698   1.406       .  A
C694        C695   1.399       .  A
C694        H707   1.083       .  S
C695        C696   1.400       .  A
C695        H708   1.084       .  S
C696        C697   1.400       .  A
C696        C699   1.441       .  S
C697        C698   1.399       .  A
C697        H709   1.083       .  S
C698        H710   1.083       .  S
C699        C700   1.206       .  T
C700        C701   1.440       .  S
C701        C702   1.400       .  A
C701        C706   1.400       .  A
C702        C703   1.398       .  A
C702        H711   1.084       .  S
C703        C704   1.406       .  A
C703        H712   1.083       .  S
C704        C705   1.406       .  A
C705        C706   1.399       .  A
C705        H713   1.083       .  S
C706        H714   1.083       .  S
C715        C716   1.406       .  A
C715        C720   1.406       .  A
C716        C717   1.399       .  A
C716        H729   1.083       .  S
C717        C718   1.400       .  A
C717        H730   1.083       .  S
C718        C719   1.400       .  A
C718        C721   1.441       .  S
C719        C720   1.399       .  A
C719        H731   1.083       .  S
C720        H732   1.083       .  S
C721        C722   1.207       .  T
C722        C723   1.442       .  S
C723        C724   1.400       .  A
C723        C728   1.401       .  A
C724        C725   1.399       .  A
C724        H733   1.084       .  S
C725        C726   1.406       .  A
C725        H734   1.083       .  S
C726        C727   1.406       .  A
C727        C728   1.400       .  A
C727        H735   1.083       .  S
C728        H736   1.083       .  S
C737        C738   1.406       .  A
C737        C742   1.405       .  A
C738        C739   1.398       .  A
C738        H751   1.083       .  S
C739        C740   1.400       .  A
C739        H752   1.083       .  S
C740        C741   1.400       .  A
C740        C743   1.440       .  S
C741        C742   1.399       .  A
C741        H753   1.084       .  S
C742        H754   1.083       .  S
C743        C744   1.206       .  T
C744        C745   1.440       .  S
C745        C746   1.400       .  A
C745        C750   1.400       .  A
C746        C747   1.397       .  A
C746        H755   1.084       .  S
C747        C748   1.406       .  A
C747        H756   1.083       .  S
C748        C749   1.406       .  A
C749        C750   1.400       .  A
C749        H757   1.083       .  S
C750        H758   1.083       .  S
C759        C760   1.406       .  A
C759        C764   1.406       .  A
C760        C761   1.398       .  A
C760        H773   1.083       .  S
C761        C762   1.400       .  A
C761        H774   1.083       .  S
C762        C763   1.401       .  A
C762        C765   1.441       .  S
C763        C764   1.400       .  A
C763        H775   1.084       .  S
C764        H776   1.083       .  S
C765        C766   1.207       .  T
C766        C767   1.442       .  S
C767        C768   1.399       .  A
C767        C772   1.401       .  A
C768        C769   1.398       .  A
C768        H777   1.083       .  S
C769        C770   1.407       .  A
C769        H778   1.083       .  S
C770        C771   1.406       .  A
C771        C772   1.401       .  A
C771        H779   1.083       .  S
C772        H780   1.084       .  S
C781        C782   1.407       .  A
C781        C786   1.407       .  A
C782        C783   1.399       .  A
C782        H795   1.083       .  S
C783        C784   1.399       .  A
C783        H796   1.083       .  S
C784        C785   1.402       .  A
C784        C787   1.444   1_455  S
C785        C786   1.402       .  A
C785        H797   1.084       .  S
C786        H798   1.083       .  S
C787        C788   1.208       .  T
C788        C789   1.444       .  S
C789        C790   1.400       .  A
C789        C794   1.402       .  A
C790        C791   1.398       .  A
C790        H799   1.083       .  S
C791        C792   1.406       .  A
C791        H800   1.083       .  S
C792        C793   1.406       .  A
C793        C794   1.401       .  A
C793        H801   1.083       .  S
C794        H802   1.083       .  S
C803        C804   1.407       .  A
C803        C808   1.406       .  A
C804        C805   1.399       .  A
C804        H817   1.083       .  S
C805        C806   1.400       .  A
C805        H818   1.083       .  S
C806        C807   1.400       .  A
C806        C809   1.440       .  S
C807        C808   1.399       .  A
C807        H819   1.084       .  S
C808        H820   1.083       .  S
C809        C810   1.206       .  T
C810        C811   1.439       .  S
C811        C812   1.400       .  A
C811        C816   1.400       .  A
C812        C813   1.398       .  A
C812        H821   1.083       .  S
C813        C814   1.406       .  A
C813        H822   1.083       .  S
C814        C815   1.405       .  A
C815        C816   1.398       .  A
C815        H823   1.083       .  S
C816        H824   1.084       .  S
C825        C826   1.406       .  A
C825        C830   1.406       .  A
C826        C827   1.399       .  A
C826        H839   1.083       .  S
C827        C828   1.400       .  A
C827        H840   1.084       .  S
C828        C829   1.399       .  A
C828        C831   1.438       .  S
C829        C830   1.398       .  A
C829        H841   1.083       .  S
C830        H842   1.083       .  S
C831        C832   1.205       .  T
C832        C833   1.438       .  S
C833        C834   1.400       .  A
C833        C838   1.399       .  A
C834        C835   1.399       .  A
C834        H843   1.084       .  S
C835        C836   1.406       .  A
C835        H844   1.083       .  S
C836        C837   1.404       .  A
C837        C838   1.397       .  A
C837        H845   1.083       .  S
C838        H846   1.083       .  S
C847        C848   1.406   1_455  A
C847        C852   1.407       .  A
C848        C849   1.401       .  A
C848        H861   1.083       .  S
C849        C850   1.402   1_655  A
C849        H862   1.083       .  S
C850        C851   1.400       .  A
C850        C853   1.443   1_455  S
C851        C852   1.399       .  A
C851        H863   1.084       .  S
C852        H864   1.083       .  S
C853        C854   1.208       .  T
C854        C855   1.443       .  S
C855        C856   1.401       .  A
C855        C860   1.400       .  A
C856        C857   1.401       .  A
C856        H865   1.083   1_655  S
C857        C858   1.406       .  A
C857        H866   1.083       .  S
C858        C859   1.407       .  A
C859        C860   1.399       .  A
C859        H867   1.083       .  S
C860        H868   1.084       .  S
C869        C870   1.406   1_455  A
C869        C874   1.406       .  A
C870        C871   1.400       .  A
C870        H883   1.083       .  S
C871        C872   1.401   1_655  A
C871        H884   1.083       .  S
C872        C873   1.399       .  A
C872        C875   1.439   1_455  S
C873        C874   1.397       .  A
C873        H885   1.084       .  S
C874        H886   1.083       .  S
C875        C876   1.206   1_545  T
C876        C877   1.440       .  S
C877        C878   1.401       .  A
C877        C882   1.399       .  A
C878        C879   1.400       .  A
C878        H887   1.083   1_655  S
C879        C880   1.406       .  A
C879        H888   1.083       .  S
C880        C881   1.406       .  A
C881        C882   1.397       .  A
C881        H889   1.083       .  S
C882        H890   1.084       .  S
C891        C892   1.406       .  A
C891        C896   1.406       .  A
C892        C893   1.399       .  A
C892        H905   1.083       .  S
C893        C894   1.400       .  A
C893        H906   1.084       .  S
C894        C895   1.400       .  A
C894        C897   1.440       .  S
C895        C896   1.399       .  A
C895        H907   1.083       .  S
C896        H908   1.083       .  S
C897        C898   1.206       .  T
C898        C899   1.440       .  S
C899        C900   1.400       .  A
C899        C904   1.400       .  A
C900        C901   1.399       .  A
C900        H909   1.083       .  S
C901        C902   1.407       .  A
C901        H910   1.083       .  S
C902        C903   1.406       .  A
C903        C904   1.399       .  A
C903        H911   1.083       .  S
C904        H912   1.083       .  S
