geometry optimzed in LAMMPS
_audit_creation_date              2020-12-01 
_audit_creation_method            'lammps2cif' 
_symmetry_space_group_name_H-M    'P1' 
_symmetry_Int_Tables_number       1 
_symmetry_cell_setting            triclinic 
loop_ 
_symmetry_equiv_pos_as_xyz 
  x,y,z 
_cell_length_a                    30.08284273 
_cell_length_b                    30.065104261069195 
_cell_length_c                    29.772577579775255 
_cell_angle_alpha                 89.63332775158963 
_cell_angle_beta                  89.9397679203565 
_cell_angle_gamma                 90.69628572835103 
loop_ 
_atom_site_label 
_atom_site_type_symbol 
_atom_site_fract_x 
_atom_site_fract_y 
_atom_site_fract_z 
_atom_site_charge 
C1          C  0.73558895  0.31783770  0.27541938     0.02800
C2          C  0.69593538  0.30114975  0.25528892    -0.13300
C3          C  0.67241102  0.26420197  0.27414748     0.00300
C4          C  0.68908673  0.24458252  0.31370375    -0.11800
C5          C  0.72876243  0.25978646  0.33356193     0.02800
C6          C  0.75175267  0.29625364  0.31426551    -0.11300
H7          H  0.68349709  0.31681453  0.22503386     0.08400
H8          H  0.67140009  0.21663513  0.32880510     0.06000
H9          H  0.78235197  0.30793206  0.32961073     0.05800
C10         C  0.73869963  0.77213896  0.27538267     0.02800
C11         C  0.75898060  0.78916888  0.31438743    -0.13300
C12         C  0.74370220  0.82831954  0.33486201     0.00300
C13         C  0.70644101  0.85004464  0.31612687    -0.11800
C14         C  0.68505769  0.83377378  0.27703634     0.02800
C15         C  0.70198929  0.79482404  0.25683249    -0.11300
H16         H  0.78721011  0.77205868  0.32865304     0.08400
H17         H  0.69411335  0.87977904  0.33201038     0.06000
H18         H  0.68649770  0.78206711  0.22663703     0.05800
C19         C  0.23086767  0.83881261  0.27284553     0.02800
C20         C  0.21321892  0.85943813  0.31125288    -0.13300
C21         C  0.17296684  0.84416737  0.33089149     0.00300
C22         C  0.15049136  0.80751959  0.31106234    -0.11800
C23         C  0.16746988  0.78695891  0.27215207     0.02800
C24         C  0.20763235  0.80293661  0.25358360    -0.11300
H25         H  0.23062197  0.88773780  0.32557756     0.08400
H26         H  0.11977221  0.79512967  0.32577900     0.06000
H27         H  0.22090775  0.78733777  0.22379107     0.05800
C28         C  0.22569385  0.84025061  0.84513621     0.02800
C29         C  0.20105530  0.80295113  0.86118138    -0.13300
C30         C  0.16210564  0.78812444  0.83883945     0.00300
C31         C  0.14798166  0.81137110  0.80013717    -0.11800
C32         C  0.17192987  0.84874132  0.78360693     0.02800
C33         C  0.21070366  0.86265924  0.80631059    -0.11300
H34         H  0.21207629  0.78558844  0.89107522     0.08400
H35         H  0.11814594  0.80041425  0.78287910     0.06000
H36         H  0.22933989  0.89118794  0.79370321     0.05800
C37         C  0.72346845  0.26408465  0.78165530     0.02800
C38         C  0.74272227  0.30346930  0.79966098    -0.13300
C39         C  0.72451100  0.32436369  0.83792387     0.00300
C40         C  0.68497201  0.30636502  0.85666462    -0.11800
C41         C  0.66498367  0.26745447  0.83930175     0.02800
C42         C  0.68491804  0.24626860  0.80249607    -0.11300
H43         H  0.77268909  0.31721936  0.78459246     0.08400
H44         H  0.67020196  0.32216755  0.88558958     0.06000
H45         H  0.67040759  0.21551604  0.79021317     0.05800
C46         C  0.74294366  0.83223897  0.78868735     0.02800
C47         C  0.70463688  0.85397865  0.80484140    -0.13300
C48         C  0.68123397  0.83800149  0.84301437     0.00300
C49         C  0.69635481  0.79909151  0.86470763    -0.11800
C50         C  0.73431033  0.77663184  0.84920618     0.02800
C51         C  0.75748469  0.79368639  0.81145235    -0.11300
H52         H  0.69325805  0.88373783  0.78790878     0.08400
H53         H  0.67865937  0.78638265  0.89389114     0.06000
H54         H  0.78695013  0.77688845  0.79978340     0.05800
C55         C  0.21843469  0.27688529  0.83615263     0.02800
C56         C  0.19889773  0.26059246  0.79587896    -0.13300
C57         C  0.16147108  0.28129019  0.77601086     0.00300
C58         C  0.14443962  0.31981046  0.79642605    -0.11800
C59         C  0.16302335  0.33732531  0.83619348     0.02800
C60         C  0.19978234  0.31540708  0.85582189    -0.11300
H61         H  0.21239927  0.23122316  0.78031352     0.08400
H62         H  0.11601073  0.33602748  0.78151260     0.06000
H63         H  0.21356483  0.32809304  0.88686630     0.05800
C64         C  0.22312088  0.27623519  0.26851716     0.02800
C65         C  0.20010516  0.25988091  0.30663578    -0.13300
C66         C  0.16213476  0.28147459  0.32337537     0.00300
C67         C  0.14772498  0.32063897  0.30156042    -0.11800
C68         C  0.17041592  0.33823720  0.26361370     0.02800
C69         C  0.20805860  0.31555620  0.24737099    -0.11300
H70         H  0.21130857  0.22966894  0.32286675     0.08400
H71         H  0.11848751  0.33732963  0.31395145     0.06000
H72         H  0.22558174  0.32842682  0.21816117     0.05800
O73         O  0.00962529  0.12898660  0.55238113    -0.55700
O74         O  0.83497337  0.19104666  0.50636272    -0.63600
C75         C  0.80109071  0.17069336  0.49117305     0.97200
O76         O  0.15857561  0.04203242  0.55125835    -0.68800
O77         O  0.07598997  0.06950021  0.60039122    -0.66700
C78         C  0.72902003  0.02410373  0.55718043     0.89300
O79         O  0.89168553  0.25250540  0.55217789    -0.68900
C80         C  0.80548407  0.17273359  0.62811508     0.96900
C81         C  0.92453242  0.27797248  0.54342615     0.89800
Ti82       Ti  0.88525164  0.18317870  0.55635362     1.51200
Ti83       Ti  0.01775830  0.92439569  0.55907001     1.51300
O84         O  0.94079738  0.18179900  0.60192901    -0.62800
O85         O  0.82806083  0.04120937  0.51061232    -0.66800
C86         C  0.10067416  0.93778436  0.62449686     0.97300
O87         O  0.89486857  0.98200734  0.55901623    -0.55800
C88         C  0.83289451  0.90552995  0.49230282     0.97000
Ti89       Ti  0.80927597  0.09006461  0.56001662     1.51000
Ti90       Ti  0.98892052  0.19764542  0.54967380     1.53000
Ti91       Ti  0.08041348  0.12167646  0.55015982     1.49300
O92         O  0.81253631  0.94034364  0.61146550    -0.62500
O93         O  0.75596747  0.99246570  0.55604998    -0.68800
O94         O  0.96476850  0.26462362  0.54370685    -0.68900
O95         O  0.87798567  0.11234371  0.55952010    -0.55700
O96         O  0.07408110  0.06726088  0.50317987    -0.66700
O97         O  0.06489183  0.91265041  0.50616924    -0.63600
O98         O  0.93598156  0.17733711  0.50485794    -0.62800
O99         O  0.87042228  0.89526175  0.61626127    -0.64100
O100        O  0.01023423  0.85450723  0.56545835    -0.68900
O101        O  0.83912918  0.19280959  0.61086912    -0.63600
O102        O  0.02438644  0.99540509  0.55459540    -0.55700
C103        C  0.97483945  0.83131132  0.56904446     0.89800
O104        O  0.82782749  0.04005124  0.60822562    -0.66700
O105        O  0.03672537  0.22004216  0.60022773    -0.64200
O106        O  0.06657157  0.91701925  0.61036547    -0.63600
C107        C  0.07309781  0.20504295  0.61648661     0.97100
C108        C  0.83294345  0.90863728  0.63028353     0.97100
C109        C  0.17380210  0.08167528  0.55093307     0.89100
O110        O  0.11426078  0.97437439  0.60697853    -0.62900
O111        O  0.78727773  0.13386435  0.50735689    -0.62900
C112        C  0.09746508  0.93338994  0.48785599     0.96800
Ti113      Ti  0.09239316  0.01793404  0.55298468     1.51000
O114        O  0.86837629  0.89056878  0.51008466    -0.64200
O115        O  0.79015349  0.13585397  0.61280788    -0.62900
O116        O  0.08995086  0.16836790  0.49610427    -0.62500
O117        O  0.93614332  0.84741491  0.56573945    -0.69100
O118        O  0.03301508  0.21547197  0.49412417    -0.64100
O119        O  0.14977133  0.11582768  0.54907167    -0.68600
O120        O  0.81450005  0.94063326  0.50614068    -0.62400
Ti121      Ti  0.91457196  0.91336815  0.56156245     1.53200
O122        O  0.09173276  0.17053544  0.60117188    -0.62500
O123        O  0.96424904  0.92719777  0.51104415    -0.62800
O124        O  0.11145334  0.97129437  0.50137707    -0.62900
C125        C  0.06984096  0.20116739  0.47868758     0.97100
O126        O  0.74190364  0.06459167  0.56060237    -0.68900
Ti127      Ti  0.82410271  0.98789977  0.55873209     1.49500
O128        O  0.96598096  0.93228919  0.60848407    -0.62800
O129        O  0.45753889  0.98293740  0.12368126    -0.55700
O130        O  0.49131699  0.15062480  0.21580087    -0.63600
C131        C  0.51016660  0.18422423  0.19680369     0.97200
O132        O  0.47005614  0.85070854  0.01673920    -0.68800
O133        O  0.41353097  0.92053651  0.05811177    -0.66700
C134        C  0.43566761  0.27530482  0.06201825     0.89300
O135        O  0.43544671  0.08194292  0.26548116    -0.68900
C136        C  0.37400209  0.17947641  0.19399010     0.96900
C137        C  0.43480832  0.04321060  0.28297853     0.89800
Ti138      Ti  0.44324428  0.09975310  0.19657090     1.51200
Ti139      Ti  0.45014809  0.00272938  0.92023207     1.51300
O140        O  0.40129252  0.04328587  0.18041744    -0.62800
O141        O  0.49002401  0.17787711  0.05866681    -0.66800
C142        C  0.38832789  0.91537714  0.92452795     0.97300
O143        O  0.44161724  0.11850442  0.99244984    -0.55800
C144        C  0.50588044  0.19100619  0.92401782     0.97000
Ti145      Ti  0.44370195  0.18601099  0.11295658     1.51000
Ti146      Ti  0.45361895  0.99578306  0.19400122     1.53000
Ti147      Ti  0.46420129  0.91335378  0.10892100     1.49300
O148        O  0.38633849  0.20251811  0.96099255    -0.62500
O149        O  0.43595102  0.25540566  0.02455688    -0.68800
O150        O  0.44649152  0.00851694  0.26231370    -0.68900
O151        O  0.44715076  0.11577085  0.12611331    -0.55700
O152        O  0.50932203  0.93304296  0.05558872    -0.66700
O153        O  0.50589094  0.96099475  0.90163284    -0.63600
O154        O  0.49690360  0.05292731  0.18752235    -0.62800
O155        O  0.38506456  0.15023391  0.90799714    -0.64100
O156        O  0.44934023  0.01915079  0.85151345    -0.68900
O157        O  0.38674229  0.14195309  0.20902841    -0.63600
O158        O  0.45223756  0.98778609  0.99109852    -0.55700
C159        C  0.44720840  0.05664481  0.83182525     0.89800
O160        O  0.39366751  0.17369144  0.06183332    -0.66700
O161        O  0.40514219  0.94478336  0.20562572    -0.64200
O162        O  0.40116136  0.95189563  0.90648384    -0.63600
C163        C  0.39381799  0.90742566  0.18959511     0.97100
C164        C  0.36965756  0.18572013  0.92535629     0.97100
C165        C  0.47844665  0.82913059  0.05234743     0.89100
O166        O  0.40790271  0.89823845  0.95838757    -0.62900
O167        O  0.49693053  0.20033392  0.15939251    -0.62900
C168        C  0.52556654  0.92767984  0.91887718     0.96800
Ti169      Ti  0.46061714  0.91807176  0.00400810     1.51000
O170        O  0.48922070  0.15677236  0.90548905    -0.64200
O171        O  0.39320662  0.19922542  0.16146910    -0.62900
O172        O  0.51748053  0.90353380  0.15611796    -0.62500
O173        O  0.44102039  0.09296755  0.85223292    -0.69100
O174        O  0.50924240  0.95265417  0.21163482    -0.64100
O175        O  0.47513285  0.84566373  0.09145682    -0.68600
O176        O  0.49110996  0.20652002  0.96070438    -0.62400
Ti177      Ti  0.44074938  0.10637006  0.92152385     1.53200
O178        O  0.41375802  0.89007238  0.15624993    -0.62500
O179        O  0.49362479  0.05893211  0.93113081    -0.62800
O180        O  0.51256804  0.90996910  0.95545267    -0.62900
C181        C  0.52944887  0.91991854  0.19364995     0.97100
O182        O  0.44039975  0.25537134  0.09944329    -0.68900
Ti183      Ti  0.43970256  0.18797449  0.00790494     1.49500
O184        O  0.39751888  0.04974882  0.93299418    -0.62800
O185        O  0.87652441  0.54959547  0.99614900    -0.55700
O186        O  0.80834549  0.48825657  0.16424170    -0.63600
C187        C  0.82787161  0.47499290  0.19957560     0.97200
O188        O  0.96897996  0.55302731  0.84713551    -0.68800
O189        O  0.93715760  0.60169981  0.93099510    -0.66700
C190        C  0.95929436  0.57291525  0.27844227     0.89300
O191        O  0.74627284  0.53431046  0.10825957    -0.68900
C192        C  0.81734143  0.61268121  0.19593557     0.96900
C193        C  0.72326788  0.53301355  0.07275857     0.89800
Ti194      Ti  0.81496509  0.54152017  0.11695098     1.51200
Ti195      Ti  0.07780114  0.56591327  0.99425784     1.51300
O196        O  0.81815010  0.59142829  0.06507724    -0.62800
O197        O  0.95997696  0.50802641  0.18425791    -0.66800
C198        C  0.06571124  0.63232012  0.91070262     0.97300
O199        O  0.01878844  0.55715356  0.11792384    -0.55800
C200        C  0.09494587  0.50015470  0.18329843     0.97000
Ti201      Ti  0.90429770  0.55151610  0.19435179     1.51000
Ti202      Ti  0.80702275  0.54337226  0.01319468     1.53000
Ti203      Ti  0.88667574  0.55062795  0.92524327     1.49300
O204        O  0.05006062  0.61938210  0.19806597    -0.62500
O205        O  0.99665092  0.57108496  0.25865695    -0.68800
O206        O  0.73966657  0.53684796  0.03345160    -0.68900
O207        O  0.88583533  0.54671878  0.12502634    -0.55700
O208        O  0.94145445  0.50531551  0.93226762    -0.66700
O209        O  0.09530039  0.51521350  0.94602207    -0.63600
O210        O  0.82525069  0.49489960  0.06344389    -0.62800
O211        O  0.10177458  0.62027691  0.14469695    -0.64100
O212        O  0.14560785  0.57523510  0.00318783    -0.68900
O213        O  0.79760969  0.59233692  0.16438271    -0.63600
O214        O  0.00800068  0.55790569  0.98497955    -0.55700
C215        C  0.16901336  0.58325228  0.03748189     0.89800
O216        O  0.95143237  0.60361271  0.17619000    -0.66700
O217        O  0.78635928  0.59620635  0.96818240    -0.64200
O218        O  0.08361927  0.61962214  0.94703474    -0.63600
C219        C  0.80282077  0.61478721  0.93314803     0.97100
C220        C  0.08452445  0.63622325  0.17997370     0.97100
C221        C  0.92950208  0.54992437  0.83209059     0.89100
O222        O  0.03267620  0.61157855  0.89355024    -0.62900
O223        O  0.86185638  0.49540826  0.21584563    -0.62900
C224        C  0.07674541  0.49512744  0.91324082     0.96800
Ti225      Ti  0.98997913  0.55632239  0.91513677     1.51000
O226        O  0.10914058  0.51622329  0.14584086    -0.64200
O227        O  0.85548949  0.60118162  0.20965832    -0.62900
O228        O  0.84205113  0.49617640  0.91165068    -0.62500
O229        O  0.15406763  0.57876101  0.07734556    -0.69100
O230        O  0.79149120  0.49115277  0.96586875    -0.64100
O231        O  0.89534784  0.55052340  0.85657834    -0.68600
O232        O  0.06095849  0.51546571  0.20389217    -0.62400
Ti233      Ti  0.08714879  0.56687392  0.09881907     1.53200
O234        O  0.83776146  0.60088453  0.91398954    -0.62500
O235        O  0.07691077  0.51714913  0.04754266    -0.62800
O236        O  0.03866948  0.50637212  0.89821583    -0.62900
C237        C  0.80805035  0.47763412  0.92910899     0.97100
O238        O  0.92311136  0.55913417  0.26124035    -0.68900
Ti239      Ti  0.00819660  0.56212996  0.18885167     1.49500
O240        O  0.06587502  0.61292164  0.04745709    -0.62800
N241        N  0.85108183  0.52565864  0.48532807    -0.36900
N242        N  0.86301864  0.50321554  0.57963611    -0.57500
N243        N  0.90973539  0.58184696  0.59739805    -0.36900
N244        N  0.89093153  0.61122974  0.51138814    -0.57500
C245        C  0.85721792  0.48117166  0.48382325     0.26700
C246        C  0.86537737  0.54250915  0.44573816     0.26700
C247        C  0.92260107  0.55597154  0.63148774     0.26700
C248        C  0.93977270  0.61501669  0.59383431     0.26700
C249        C  0.84288531  0.46683244  0.56366383     0.35300
C250        C  0.86468762  0.49871037  0.62436875     0.35300
C251        C  0.87473161  0.62033803  0.47057984     0.35300
C252        C  0.90527933  0.64991420  0.52884196     0.35300
C253        C  0.87147043  0.46916571  0.44139823    -0.22200
C254        C  0.87579339  0.50786679  0.41696808    -0.22200
C255        C  0.96154071  0.57283230  0.65023427    -0.22200
C256        C  0.97263890  0.61040360  0.62594104    -0.22200
C257        C  0.82928932  0.43957313  0.59906210    -0.23200
C258        C  0.84221884  0.46058831  0.63804652    -0.23200
C259        C  0.87740628  0.66593437  0.46261231    -0.23200
C260        C  0.89602462  0.68483005  0.50005945    -0.23200
C261        C  0.85373841  0.45186568  0.52087183    -0.18600
C262        C  0.87545405  0.58794724  0.43718884    -0.18600
C263        C  0.93372125  0.65184200  0.56607193    -0.18600
C264        C  0.89508947  0.52290098  0.65012747    -0.18600
H265        H  0.87977815  0.43623856  0.42983195     0.14300
H266        H  0.88853405  0.51038284  0.38301251     0.14300
H267        H  0.97900004  0.56055416  0.67943794     0.14300
H268        H  0.00021448  0.63288350  0.63249734     0.14300
H269        H  0.81617005  0.40598209  0.59670409     0.12600
H270        H  0.84080813  0.44655761  0.67159786     0.12600
H271        H  0.87111014  0.68349660  0.43159361     0.12600
H272        H  0.90561732  0.71943781  0.50364290     0.12600
H273        H  0.83982963  0.54429111  0.51296938     0.25900
H274        H  0.87790997  0.58177452  0.58379407     0.25900
N275        N  0.47715715  0.95517390  0.50540152    -0.36900
N276        N  0.50898917  0.01050795  0.58330713    -0.57500
N277        N  0.42859794  0.05591533  0.58835330    -0.36900
N278        N  0.39426474  0.00489338  0.51865872    -0.57500
C279        C  0.52190290  0.95612224  0.50115291     0.26700
C280        C  0.46035576  0.95710506  0.46343898     0.26700
C281        C  0.45312072  0.07807370  0.61844362     0.26700
C282        C  0.39285621  0.08050710  0.57915024     0.26700
C283        C  0.53608709  0.97578499  0.57912393     0.35300
C284        C  0.51076639  0.02259670  0.62663810     0.35300
C285        C  0.38446845  0.97612090  0.48599142     0.35300
C286        C  0.35646475  0.02450499  0.53091198     0.35300
C287        C  0.53378376  0.95393827  0.45631828    -0.22200
C288        C  0.49472356  0.95477481  0.43231727    -0.22200
C289        C  0.43313925  0.11806994  0.62857158    -0.22200
C290        C  0.39508081  0.12004131  0.60283234    -0.22200
C291        C  0.55712145  0.96715757  0.61971563    -0.23200
C292        C  0.54016056  0.99639012  0.65030195    -0.23200
C293        C  0.33893570  0.97592353  0.47850905    -0.23200
C294        C  0.32094647  0.00585991  0.50781589    -0.23200
C295        C  0.55145711  0.96325961  0.53695712    -0.18600
C296        C  0.41607381  0.96831383  0.45285359    -0.18600
C297        C  0.35556646  0.06377052  0.55647166    -0.18600
C298        C  0.48469822  0.05636350  0.64455682    -0.18600
H299        H  0.56702796  0.95493647  0.44237989     0.14300
H300        H  0.49202392  0.95670764  0.39610090     0.14300
H301        H  0.44316265  0.14158238  0.65410100     0.14300
H302        H  0.37008458  0.14557624  0.60438265     0.14300
H303        H  0.58279954  0.94322262  0.62645728     0.12600
H304        H  0.54902027  0.99879649  0.68543753     0.12600
H305        H  0.32091215  0.95954160  0.45189080     0.12600
H306        H  0.28648555  0.01568883  0.50863023     0.12600
H307        H  0.45936052  0.95649982  0.53540117     0.25900
H308        H  0.43104454  0.02197174  0.58332834     0.25900
N309        N  0.46595202  0.50936139  0.04320221    -0.36900
N310        N  0.38678301  0.52589763  0.99962980    -0.57500
N311        N  0.41899141  0.61297129  0.96219982    -0.36900
N312        N  0.50157211  0.58845419  0.00675823    -0.57500
C313        C  0.43910687  0.47964049  0.06366755     0.26700
C314        C  0.50279722  0.51301373  0.06811606     0.26700
C315        C  0.37490261  0.61927493  0.96696288     0.26700
C316        C  0.43859312  0.65324004  0.96760414     0.26700
C317        C  0.37857637  0.48288285  0.00945915     0.35300
C318        C  0.35349006  0.54008166  0.97382994     0.35300
C319        C  0.53943637  0.56945102  0.02041430     0.35300
C320        C  0.51327148  0.62539206  0.98393205     0.35300
C321        C  0.45915910  0.46404880  0.10257951    -0.22200
C322        C  0.49970358  0.48557607  0.10554930    -0.22200
C323        C  0.36618939  0.66431695  0.97055785    -0.22200
C324        C  0.40646808  0.68591736  0.97002496    -0.22200
C325        C  0.34008704  0.46845015  0.98857397    -0.23200
C326        C  0.32332791  0.50540455  0.96692400    -0.23200
C327        C  0.57585634  0.59359422  0.00467807    -0.23200
C328        C  0.55913012  0.62989237  0.98272923    -0.23200
C329        C  0.40308204  0.45949077  0.04171871    -0.18600
C330        C  0.54075752  0.53586915  0.05349457    -0.18600
C331        C  0.48367203  0.66030665  0.97879305    -0.18600
C332        C  0.34293248  0.58518903  0.97258150    -0.18600
H333        H  0.44707969  0.43801063  0.12484725     0.14300
H334        H  0.52496275  0.47982520  0.13071614     0.14300
H335        H  0.33440037  0.67991590  0.97579190     0.14300
H336        H  0.41159917  0.72121702  0.97523559     0.14300
H337        H  0.32382499  0.43632119  0.99222713     0.12600
H338        H  0.29102722  0.50765994  0.95113026     0.12600
H339        H  0.61063616  0.58798256  0.01166109     0.12600
H340        H  0.57861746  0.65774487  0.97035211     0.12600
H341        H  0.46377995  0.51890094  0.00960150     0.25900
H342        H  0.43483115  0.58247840  0.95896264     0.25900
C343        C  0.26640457  0.61417045  0.96719236    -0.02100
C344        C  0.30042335  0.59656575  0.99338479     0.07500
C345        C  0.29363062  0.58801910  0.03973799    -0.02200
C346        C  0.25032993  0.58683998  0.05699793    -0.02200
C347        C  0.21494167  0.59790245  0.02833123     0.07700
C348        C  0.22430549  0.61800478  0.98604710    -0.02400
Br349      Br  0.18072993  0.65249786  0.95431430    -0.01000
Br350      Br  0.27683613  0.63084984  0.90522206    -0.01100
Br351      Br  0.24068932  0.56870190  0.11863774    -0.01000
Br352      Br  0.34316533  0.57734503  0.07945044    -0.01000
C353        C  0.60472866  0.55653283  0.10046436    -0.02100
C354        C  0.58384242  0.52498556  0.07279211     0.07500
C355        C  0.60794726  0.49031234  0.05338039    -0.02200
C356        C  0.65427111  0.49134426  0.05577686    -0.02200
C357        C  0.67562742  0.52704752  0.07758134     0.07700
C358        C  0.65108472  0.55813243  0.10234990    -0.02400
Br359      Br  0.68031725  0.60631929  0.13372750    -0.01000
Br360      Br  0.56967148  0.60103522  0.13012332    -0.01100
Br361      Br  0.68833420  0.44507344  0.02773823    -0.01000
Br362      Br  0.57778819  0.44442682  0.01959084    -0.01000
C363        C  0.91804471  0.62404506  0.32435449    -0.02100
C364        C  0.95460560  0.59543740  0.32130820     0.07500
C365        C  0.97343245  0.57798157  0.36036962    -0.02200
C366        C  0.94962873  0.58132845  0.40064664    -0.02200
C367        C  0.90554202  0.59772565  0.39945673     0.07700
C368        C  0.89032332  0.62089553  0.36166314    -0.02400
Br369      Br  0.83019733  0.64230167  0.35802078    -0.01000
Br370      Br  0.90408425  0.66335250  0.27526126    -0.01100
Br371      Br  0.97499919  0.55868759  0.45566451    -0.01000
Br372      Br  0.02902227  0.54711849  0.35773468    -0.01000
C373        C  0.92773939  0.49468222  0.72011093    -0.02100
C374        C  0.89507576  0.51998691  0.69868929     0.07500
C375        C  0.87294375  0.55413770  0.72121490    -0.02200
C376        C  0.88718051  0.56660705  0.76378062    -0.02200
C377        C  0.92123044  0.54239111  0.78494687     0.07700
C378        C  0.94022181  0.50524466  0.76395147    -0.02400
Br379      Br  0.98186712  0.46777818  0.79527273    -0.01000
Br380      Br  0.95803315  0.44878777  0.68757406    -0.01100
Br381      Br  0.86147857  0.61836912  0.79170256    -0.01000
Br382      Br  0.82621742  0.58673170  0.69141687    -0.01000
C383        C  0.39425405  0.34280073  0.08635117    -0.02100
C384        C  0.42820390  0.32322373  0.06045154     0.07500
C385        C  0.45006963  0.34795288  0.02663486    -0.02200
C386        C  0.43544556  0.39039087  0.01568134    -0.02200
C387        C  0.40303797  0.41077162  0.04247391     0.07700
C388        C  0.38235075  0.38713900  0.07779106    -0.02400
Br389      Br  0.33913250  0.41637816  0.11488861    -0.01000
Br390      Br  0.36409330  0.30974083  0.13341767    -0.01100
Br391      Br  0.46200622  0.42186678  0.96535924    -0.01000
Br392      Br  0.50305614  0.32541198  0.99821604    -0.01000
C393        C  0.47196981  0.74771685  0.06729734    -0.02100
C394        C  0.49329392  0.78358123  0.04560564     0.07500
C395        C  0.52149397  0.77595923  0.00854367    -0.02200
C396        C  0.51855261  0.73570364  0.98569295    -0.02200
C397        C  0.49397598  0.70061020  0.00493207     0.07700
C398        C  0.47442193  0.70541077  0.04805840    -0.02400
Br399      Br  0.44593721  0.65549345  0.07809286    -0.01000
Br400      Br  0.43525233  0.75703899  0.11957239    -0.01100
Br401      Br  0.54245294  0.73144757  0.92570820    -0.01000
Br402      Br  0.56237001  0.82155757  0.98778042    -0.01000
C403        C  0.38770385  0.99945352  0.33404318    -0.02100
C404        C  0.41741773  0.03567773  0.32805104     0.07500
C405        C  0.43632219  0.05670092  0.36528223    -0.02200
C406        C  0.43013892  0.03737968  0.40772637    -0.02200
C407        C  0.41012865  0.99441235  0.41131588     0.07700
C408        C  0.38731618  0.97621423  0.37468839    -0.02400
Br409      Br  0.35999595  0.91793772  0.37816755    -0.01000
Br410      Br  0.34812195  0.98175463  0.28634100    -0.01100
Br411      Br  0.45156825  0.06887501  0.45977158    -0.01000
Br412      Br  0.47372752  0.10882695  0.35788373    -0.01000
C413        C  0.44584413  0.02484705  0.71060833    -0.02100
C414        C  0.47665425  0.05610874  0.69284901     0.07500
C415        C  0.49757483  0.08754504  0.72030410    -0.02200
C416        C  0.48777495  0.08785505  0.76617590    -0.02200
C417        C  0.45516216  0.05814505  0.78368170     0.07700
C418        C  0.43405417  0.02676478  0.75582581    -0.02400
Br419      Br  0.38826012  0.98697871  0.77894503    -0.01000
Br420      Br  0.42045579  0.97842821  0.67347351    -0.01100
Br421      Br  0.52240191  0.12614615  0.80487757    -0.01000
Br422      Br  0.54033659  0.12904138  0.69494589    -0.01000
C423        C  0.60928856  0.02001789  0.51790778    -0.02100
C424        C  0.59832242  0.97532082  0.52885887     0.07500
C425        C  0.63020108  0.94775267  0.54792835    -0.02200
C426        C  0.66942871  0.96664378  0.56440994    -0.02200
C427        C  0.68199019  0.01076417  0.55187996     0.07700
C428        C  0.65194044  0.03706894  0.52724337    -0.02400
Br429      Br  0.66775341  0.09627987  0.50652431    -0.01000
Br430      Br  0.56512221  0.05908877  0.49313019    -0.01100
Br431      Br  0.70173201  0.93352777  0.60952736    -0.01000
Br432      Br  0.61712370  0.88512359  0.55596979    -0.01000
C433        C  0.24080783  0.07241421  0.59611881    -0.02100
C434        C  0.22114418  0.08814709  0.55637089     0.07500
C435        C  0.24694396  0.10793404  0.52204373    -0.02200
C436        C  0.29331097  0.10663631  0.52528159    -0.02200
C437        C  0.31269176  0.08507869  0.56233326     0.07700
C438        C  0.28691817  0.07142825  0.59936182    -0.02400
Br439      Br  0.31450333  0.04587949  0.65192209    -0.01000
Br440      Br  0.20463439  0.04913293  0.64478435    -0.01100
Br441      Br  0.33040388  0.12821377  0.47669658    -0.01000
Br442      Br  0.21929329  0.13121650  0.46849766    -0.01000
C443        C  0.94944304  0.76560128  0.61178305    -0.02100
C444        C  0.97736115  0.78379361  0.57809106     0.07500
C445        C  0.00044723  0.75590204  0.54858594    -0.02200
C446        C  0.98984092  0.71044801  0.54812622    -0.02200
C447        C  0.95619692  0.69388438  0.57675089     0.07700
C448        C  0.93840066  0.72044681  0.61080896    -0.02400
Br449      Br  0.89494908  0.69639602  0.65259896    -0.01000
Br450      Br  0.92364957  0.80305669  0.65728050    -0.01100
Br451      Br  0.01751748  0.67162042  0.50533264    -0.01000
Br452      Br  0.04204320  0.78017960  0.50526216    -0.01000
C453        C  0.87530354  0.33021276  0.50278495    -0.02100
C454        C  0.91314822  0.32387725  0.53030358     0.07500
C455        C  0.93612200  0.36120615  0.54707803    -0.02200
C456        C  0.91900791  0.40385487  0.53909047    -0.02200
C457        C  0.87647576  0.40855822  0.51919069     0.07700
C458        C  0.85503689  0.37172192  0.50037821    -0.02400
Br459      Br  0.79728242  0.37789467  0.47308740    -0.01000
Br460      Br  0.85365575  0.28356755  0.46444954    -0.01100
Br461      Br  0.95421886  0.45555211  0.55475439    -0.01000
Br462      Br  0.98923979  0.35441446  0.58260390    -0.01000
C463        C  0.11429107  0.22062712  0.35904455    -0.02100
C464        C  0.13679637  0.26203224  0.36286725     0.07500
C465        C  0.13592639  0.28392220  0.40482880    -0.02200
C466        C  0.11281758  0.26489281  0.44203208    -0.02200
C467        C  0.09097740  0.22320761  0.43833248     0.07700
C468        C  0.09263527  0.20090259  0.39668873    -0.02400
Br469      Br  0.06572685  0.14262884  0.39135179    -0.01000
Br470      Br  0.11173885  0.19147032  0.30151938    -0.01100
Br471      Br  0.11333778  0.29465164  0.49916592    -0.01000
Br472      Br  0.16852202  0.33895461  0.41224016    -0.01000
C473        C  0.13770870  0.46042650  0.24548781    -0.02100
C474        C  0.11747409  0.45969199  0.20264345     0.07500
C475        C  0.11686598  0.41900330  0.17882397    -0.02200
C476        C  0.13458134  0.37969196  0.19816346    -0.02200
C477        C  0.15437303  0.38043338  0.24126077     0.07700
C478        C  0.15715169  0.42157620  0.26391000    -0.02400
Br479      Br  0.18998489  0.42519039  0.31935275    -0.01000
Br480      Br  0.13903334  0.51474104  0.27926454    -0.01100
Br481      Br  0.12998001  0.32432073  0.16608314    -0.01000
Br482      Br  0.08904431  0.41624479  0.12047195    -0.01000
C483        C  0.33923590  0.22545472  0.25527183    -0.02100
C484        C  0.33481784  0.20188246  0.21462895     0.07500
C485        C  0.29380289  0.20318412  0.19164000    -0.02200
C486        C  0.25720873  0.22610860  0.20996155    -0.02200
C487        C  0.26191028  0.25098048  0.24984734     0.07700
C488        C  0.30346818  0.25083041  0.27209903    -0.02400
Br489      Br  0.31215915  0.28732799  0.32439317    -0.01000
Br490      Br  0.39503123  0.22394571  0.28705565    -0.01100
Br491      Br  0.19994468  0.22180830  0.18128628    -0.01000
Br492      Br  0.28794536  0.17389526  0.13446034    -0.01000
C493        C  0.13891860  0.24396581  0.65387543    -0.02100
C494        C  0.09473745  0.22727915  0.65635676     0.07500
C495        C  0.07316833  0.22742278  0.69856521    -0.02200
C496        C  0.09494553  0.24453196  0.73722656    -0.02200
C497        C  0.13882123  0.26218994  0.73467027     0.07700
C498        C  0.16038190  0.26201231  0.69235238    -0.02400
Br499      Br  0.21897833  0.28807557  0.68652387    -0.01000
Br500      Br  0.17037534  0.24188850  0.59745307    -0.01100
Br501      Br  0.06506209  0.24134570  0.79443004    -0.01000
Br502      Br  0.01481353  0.20052455  0.70428187    -0.01000
C503        C  0.10112586  0.37416123  0.88029782    -0.02100
C504        C  0.14239665  0.37777603  0.85768420     0.07500
C505        C  0.16269359  0.42038938  0.85425676    -0.02200
C506        C  0.14193033  0.45850562  0.87268913    -0.02200
C507        C  0.09953068  0.45513445  0.89334547     0.07700
C508        C  0.07959717  0.41238513  0.89718178    -0.02400
Br509      Br  0.02348960  0.40566796  0.92809696    -0.01000
Br510      Br  0.07511747  0.31613015  0.89055165    -0.01100
Br511      Br  0.17165540  0.51548433  0.86909406    -0.01000
Br512      Br  0.21878625  0.42667098  0.82337394    -0.01000
C513        C  0.25394595  0.20808974  0.87275527    -0.02100
C514        C  0.25751666  0.25317117  0.85843095     0.07500
C515        C  0.29843249  0.27571320  0.86666278    -0.02200
C516        C  0.33394897  0.25441582  0.88968893    -0.02200
C517        C  0.33079387  0.20901344  0.90276101     0.07700
C518        C  0.29024988  0.18620427  0.89394128    -0.02400
Br519      Br  0.28317993  0.12534718  0.91390137    -0.01000
Br520      Br  0.19823120  0.17643029  0.86574647    -0.01100
Br521      Br  0.38751329  0.28789554  0.90277819    -0.01000
Br522      Br  0.30740019  0.33528390  0.84366894    -0.01000
C523        C  0.78877619  0.89300033  0.75022685    -0.02100
C524        C  0.76815574  0.85048959  0.74849530     0.07500
C525        C  0.77110583  0.82613287  0.70797378    -0.02200
C526        C  0.79340037  0.84438622  0.66987595    -0.02200
C527        C  0.81218929  0.88762271  0.67123588     0.07700
C528        C  0.80933523  0.91189167  0.71161258    -0.02400
Br529      Br  0.83363261  0.97153552  0.71397893    -0.01000
Br530      Br  0.79131915  0.92449839  0.80644657    -0.01100
Br531      Br  0.79622554  0.81116181  0.61477137    -0.01000
Br532      Br  0.74300878  0.76833144  0.70375680    -0.01000
C533        C  0.78290113  0.73758413  0.90628467    -0.02100
C534        C  0.74998704  0.73518870  0.87255769     0.07500
C535        C  0.73246736  0.69301441  0.86079735    -0.02200
C536        C  0.74869310  0.65372979  0.88132172    -0.02200
C537        C  0.78210093  0.65606519  0.91447807     0.07700
C538        C  0.79855230  0.69836354  0.92734152    -0.02400
Br539      Br  0.84283165  0.70244455  0.97402198    -0.01000
Br540      Br  0.80684653  0.79482979  0.92328524    -0.01100
Br541      Br  0.72571955  0.59647262  0.86361081    -0.01000
Br542      Br  0.68643147  0.68919832  0.81599922    -0.01000
C543        C  0.59988400  0.86051906  0.83908912    -0.02100
C544        C  0.64155643  0.86260624  0.86103171     0.07500
C545        C  0.64522160  0.88817970  0.90056391    -0.02200
C546        C  0.60798296  0.91101012  0.91791811    -0.02200
C547        C  0.56604576  0.90835192  0.89653299     0.07700
C548        C  0.56256420  0.88345558  0.85646527    -0.02400
Br549      Br  0.50617373  0.87962981  0.82604832    -0.01000
Br550      Br  0.59341383  0.82381634  0.78656426    -0.01100
Br551      Br  0.61465736  0.94713380  0.97081673    -0.01000
Br552      Br  0.70156517  0.89169404  0.93130096    -0.01000
C553        C  0.78930684  0.22674961  0.74381841    -0.02100
C554        C  0.74434795  0.24026238  0.74227333     0.07500
C555        C  0.71911619  0.22935197  0.70346832    -0.02200
C556        C  0.73813787  0.20494032  0.66771926    -0.02200
C557        C  0.78367278  0.19384679  0.66824355     0.07700
C558        C  0.80902761  0.20505699  0.70671743    -0.02400
Br559      Br  0.87083917  0.18874495  0.70979758    -0.01000
Br560      Br  0.82372581  0.23516099  0.79795432    -0.01100
Br561      Br  0.70165489  0.18764937  0.61733227    -0.01000
Br562      Br  0.65908279  0.25044574  0.69713005    -0.01000
C563        C  0.75503389  0.40433582  0.83725985    -0.02100
C564        C  0.74767446  0.36347435  0.86023099     0.07500
C565        C  0.76235662  0.36004634  0.90533896    -0.02200
C566        C  0.78092320  0.39726517  0.92794247    -0.02200
C567        C  0.78724195  0.43838126  0.90536675     0.07700
C568        C  0.77538516  0.44107938  0.85933944    -0.02400
Br569      Br  0.78620380  0.49559525  0.82622508    -0.01000
Br570      Br  0.73622690  0.41084764  0.77564701    -0.01100
Br571      Br  0.80063996  0.39070973  0.98931364    -0.01000
Br572      Br  0.76080247  0.30306055  0.93540426    -0.01000
C573        C  0.58155733  0.25443137  0.84156504    -0.02100
C574        C  0.62395452  0.24788998  0.86079721     0.07500
C575        C  0.62716202  0.22197849  0.90036379    -0.02200
C576        C  0.58849455  0.20452503  0.92143827    -0.02200
C577        C  0.54604603  0.21205673  0.90285200     0.07700
C578        C  0.54287646  0.23653056  0.86240811    -0.02400
Br579      Br  0.48535143  0.24543343  0.83561778    -0.01000
Br580      Br  0.57651140  0.28737757  0.78614611    -0.01100
Br581      Br  0.59381334  0.16811403  0.97474883    -0.01000
Br582      Br  0.68488555  0.20784319  0.92410393    -0.01000
C583        C  0.15944423  0.85305400  0.69956373    -0.02100
C584        C  0.15663525  0.87314192  0.74221977     0.07500
C585        C  0.13892696  0.91643037  0.74512979    -0.02200
C586        C  0.12373756  0.93892550  0.70616247    -0.02200
C587        C  0.12444756  0.91786866  0.66390072     0.07700
C588        C  0.14276909  0.87486673  0.66089991    -0.02400
Br589      Br  0.14508278  0.84562206  0.60350615    -0.01000
Br590      Br  0.18681622  0.79563888  0.69401007    -0.01100
Br591      Br  0.09928015  0.99770526  0.71115691    -0.01000
Br592      Br  0.13230043  0.94380561  0.80304397    -0.01000
C593        C  0.10403573  0.75318973  0.89062758    -0.02100
C594        C  0.13565460  0.74849508  0.85588688     0.07500
C595        C  0.14087005  0.70606771  0.83651257    -0.02200
C596        C  0.11499668  0.66907485  0.85161535    -0.02200
C597        C  0.08534793  0.67311023  0.88815599     0.07700
C598        C  0.07967414  0.71572846  0.90712305    -0.02400
Br599      Br  0.03773714  0.72284051  0.95545199    -0.01000
Br600      Br  0.09422437  0.81127745  0.91558810    -0.01100
Br601      Br  0.12031395  0.61254968  0.82238024    -0.01000
Br602      Br  0.18536886  0.69816545  0.79074905    -0.01000
C603        C  0.30723885  0.83342819  0.86713219    -0.02100
C604        C  0.26682246  0.85701661  0.86889044     0.07500
C605        C  0.26637109  0.89828541  0.89134254    -0.02200
C606        C  0.30587455  0.91669641  0.90962145    -0.02200
C607        C  0.34658335  0.89379429  0.90678357     0.07700
C608        C  0.34663427  0.85129140  0.88671153    -0.02400
Br609      Br  0.40100263  0.81810316  0.88488883    -0.01000
Br610      Br  0.30914088  0.77763280  0.83568952    -0.01100
Br611      Br  0.30376170  0.97305850  0.94028756    -0.01000
Br612      Br  0.21107350  0.92931086  0.89826780    -0.01000
C613        C  0.16098872  0.89360306  0.44943856    -0.02100
C614        C  0.11842586  0.91276953  0.44742339     0.07500
C615        C  0.09455202  0.91062557  0.40669812    -0.02200
C616        C  0.11242361  0.88886910  0.36882771    -0.02200
C617        C  0.15402239  0.86743415  0.37135408     0.07700
C618        C  0.17804250  0.86986585  0.41226155    -0.02400
Br619      Br  0.23316946  0.83834299  0.41867104    -0.01000
Br620      Br  0.19618272  0.90037249  0.50306049    -0.01100
Br621      Br  0.08039931  0.89070583  0.31285250    -0.01000
Br622      Br  0.03789236  0.93982148  0.40223462    -0.01000
C623        C  0.08550743  0.71743381  0.20198937    -0.02100
C624        C  0.10604576  0.67542640  0.20222241     0.07500
C625        C  0.14606324  0.67023780  0.22627733    -0.02200
C626        C  0.16417726  0.70577744  0.25147844    -0.05600
C627        C  0.14437650  0.74812272  0.25043231     0.07700
C628        C  0.10509826  0.75381307  0.22506205    -0.02400
Br629      Br  0.07915884  0.81187571  0.22006743    -0.01000
Br630      Br  0.03152496  0.72555846  0.16817522    -0.01100
Br631      Br  0.21534057  0.69596368  0.28914751    -0.01000
Br632      Br  0.17657853  0.61440447  0.22429513    -0.01000
C633        C  0.31481917  0.84456386  0.26973582    -0.02100
C634        C  0.27302226  0.85540235  0.25143922     0.07500
C635        C  0.27144300  0.88120793  0.21175064    -0.02200
C636        C  0.31110330  0.89590458  0.19053990    -0.02200
C637        C  0.35301460  0.88575864  0.20907587     0.07700
C638        C  0.35451709  0.86069490  0.24938868    -0.02400
Br639      Br  0.41066051  0.85011986  0.27800918    -0.01000
Br640      Br  0.31749921  0.80669189  0.32219706    -0.01100
Br641      Br  0.30803660  0.93216052  0.13699132    -0.01000
Br642      Br  0.21457249  0.89778951  0.18734488    -0.01000
C643        C  0.74558210  0.84769194  0.41789329    -0.02100
C644        C  0.76720370  0.84656007  0.37573385     0.07500
C645        C  0.81165454  0.86250266  0.37288891    -0.02200
C646        C  0.83374328  0.87975147  0.41126355    -0.02200
C647        C  0.81165751  0.88207169  0.45309080     0.07700
C648        C  0.76736164  0.86585619  0.45595728    -0.02400
Br649      Br  0.73648005  0.86781036  0.51254816    -0.01000
Br650      Br  0.68643760  0.82274448  0.42401425    -0.01100
Br651      Br  0.89357729  0.90296321  0.40580824    -0.01000
Br652      Br  0.84177930  0.86308017  0.31564563    -0.01000
C653        C  0.74356758  0.68806943  0.26815664    -0.02100
C654        C  0.75711315  0.73104647  0.25371846     0.07500
C655        C  0.79020460  0.73471031  0.22016327    -0.02200
C656        C  0.80957704  0.69617162  0.20155051    -0.02200
C657        C  0.79609539  0.65314310  0.21593983     0.07700
C658        C  0.76264394  0.64945645  0.24917491    -0.02400
Br659      Br  0.74353788  0.59138569  0.26930541    -0.01000
Br660      Br  0.69911392  0.68229939  0.31456798    -0.01100
Br661      Br  0.85483762  0.70228532  0.15593313    -0.01000
Br662      Br  0.80943295  0.79294495  0.20014135    -0.01000
C663        C  0.64741961  0.90135506  0.24092742    -0.02100
C664        C  0.64473437  0.85699724  0.25747168     0.07500
C665        C  0.60325678  0.83443009  0.25437261    -0.02200
C666        C  0.56622605  0.85472821  0.23332234    -0.02200
C667        C  0.56872507  0.89911166  0.21723360     0.07700
C668        C  0.60974200  0.92221666  0.22137621    -0.02400
Br669      Br  0.61510944  0.98164371  0.19708148    -0.01000
Br670      Br  0.70338784  0.93323727  0.24293470    -0.01100
Br671      Br  0.51195462  0.82098591  0.22586889    -0.01000
Br672      Br  0.59619994  0.77618001  0.28129519    -0.01000
C673        C  0.77079131  0.19695898  0.36977419    -0.02100
C674        C  0.74641394  0.23651645  0.37427157     0.07500
C675        C  0.73751155  0.25272876  0.41770811    -0.02200
C676        C  0.75320821  0.22989087  0.45615169    -0.02200
C677        C  0.77818250  0.19069731  0.45159145     0.07700
C678        C  0.78590141  0.17378956  0.40820324    -0.02400
Br679      Br  0.81805189  0.11912715  0.40142639    -0.01000
Br680      Br  0.78566360  0.17586107  0.31070416    -0.01100
Br681      Br  0.74055642  0.25221104  0.51527844    -0.01000
Br682      Br  0.70449033  0.30681464  0.42435072    -0.01000
C683        C  0.76510471  0.39746639  0.28161446    -0.02100
C684        C  0.76066547  0.35776038  0.25644671     0.07500
C685        C  0.78231724  0.35576570  0.21430591    -0.02200
C686        C  0.80555634  0.39342330  0.19666231    -0.02200
C687        C  0.80920492  0.43338769  0.22150676     0.07700
C688        C  0.79010689  0.43439093  0.26483067    -0.02400
Br689      Br  0.79741737  0.48684982  0.30102558    -0.01000
Br690      Br  0.73463202  0.40249557  0.33831789    -0.01100
Br691      Br  0.83405410  0.38969118  0.13866904    -0.01000
Br692      Br  0.78187808  0.30066941  0.18141663    -0.01000
C693        C  0.62992288  0.19965251  0.23882047    -0.02100
C694        C  0.63086719  0.24462017  0.25291303     0.07500
C695        C  0.59108675  0.26919796  0.24967731    -0.02200
C696        C  0.55180710  0.24966418  0.23150426    -0.02200
C697        C  0.55087599  0.20461708  0.21817254     0.07700
C698        C  0.59012523  0.17958438  0.22286159    -0.02400
Br699      Br  0.58995247  0.11758381  0.20632530    -0.01000
Br700      Br  0.68391069  0.16559902  0.23904504    -0.01100
Br701      Br  0.49828463  0.28402417  0.22674331    -0.01000
Br702      Br  0.58940949  0.32893500  0.27262990    -0.01000
loop_ 
_geom_bond_atom_site_label_1 
_geom_bond_atom_site_label_2 
_geom_bond_distance 
_geom_bond_site_symmetry_2 
_ccdc_geom_bond_type 
C1            C2   1.423       .  A
C1            C6   1.412       .  A
C1          C684   1.516       .  S
C2            C3   1.422       .  A
C2            H7   1.083       .  S
C3            C4   1.409       .  A
C3          C694   1.515       .  S
C4            C5   1.405       .  A
C4            H8   1.084       .  S
C5            C6   1.408       .  A
C5          C674   1.497       .  S
C6            H9   1.084       .  S
C10          C11   1.409       .  A
C10          C15   1.416       .  A
C10         C654   1.508       .  S
C11          C12   1.411       .  A
C11          H16   1.084       .  S
C12          C13   1.417       .  A
C12         C644   1.511       .  S
C13          C14   1.417       .  A
C13          H17   1.083       .  S
C14          C15   1.420       .  A
C14         C664   1.522       .  S
C15          H18   1.083       .  S
C19          C20   1.411       .  A
C19          C24   1.404       .  A
C19         C634   1.497       .  S
C20          C21   1.414       .  A
C20          H25   1.084       .  S
C21          C22   1.418       .  A
C21         C617   1.511       .  S
C22          C23   1.414       .  A
C22          H26   1.083       .  S
C23          C24   1.406       .  A
C23         C627   1.502       .  S
C24          H27   1.084       .  S
C28          C29   1.417       .  A
C28          C33   1.411       .  A
C28         C604   1.509       .  S
C29          C30   1.417       .  A
C29          H34   1.083       .  S
C30          C31   1.412       .  A
C30         C594   1.510       .  S
C31          C32   1.413       .  A
C31          H35   1.084       .  S
C32          C33   1.409       .  A
C32         C584   1.505       .  S
C33          H36   1.084       .  S
C37          C38   1.420       .  A
C37          C42   1.413       .  A
C37         C554   1.517       .  S
C38          C39   1.417       .  A
C38          H43   1.083       .  S
C39          C40   1.414       .  A
C39         C564   1.517       .  S
C40          C41   1.410       .  A
C40          H44   1.084       .  S
C41          C42   1.408       .  A
C41         C574   1.502       .  S
C42          H45   1.084       .  S
C46          C47   1.417       .  A
C46          C51   1.413       .  A
C46         C524   1.513       .  S
C47          C48   1.415       .  A
C47          H52   1.083       .  S
C48          C49   1.413       .  A
C48         C544   1.512       .  S
C49          C50   1.412       .  A
C49          H53   1.084       .  S
C50          C51   1.412       .  A
C50         C534   1.504       .  S
C51          H54   1.083       .  S
C55          C56   1.423       .  A
C55          C60   1.422       .  A
C55         C514   1.532       .  S
C56          C57   1.421       .  A
C56          H61   1.083       .  S
C57          C58   1.413       .  A
C57         C497   1.520       .  S
C58          C59   1.412       .  A
C58          H62   1.084       .  S
C59          C60   1.419       .  A
C59         C504   1.517       .  S
C60          H63   1.083       .  S
C64          C65   1.411       .  A
C64          C69   1.415       .  A
C64         C487   1.508       .  S
C65          C66   1.413       .  A
C65          H70   1.084       .  S
C66          C67   1.414       .  A
C66         C464   1.511       .  S
C67          C68   1.416       .  A
C67          H71   1.083       .  S
C68          C69   1.415       .  A
C68         C477   1.513       .  S
C69          H72   1.083       .  S
O73         Ti91   2.144       .  S
O73         Ti90   2.164   1_455  S
O74          C75   1.268       .  A
O74         Ti82   2.137       .  S
C75         C677   1.493       .  S
C75         O111   1.270       .  A
O76         C109   1.272       .  A
O76        Ti113   2.111       .  S
O77        Ti113   2.164       .  S
O77         Ti91   2.163       .  S
C78         C427   1.475       .  S
C78          O93   1.258   1_545  A
C78         O126   1.278       .  A
O79          C81   1.268       .  A
O79         Ti82   2.094       .  S
C80         C557   1.510       .  S
C80         O115   1.282       .  A
C80         O101   1.278       .  A
C81         C454   1.476       .  S
C81          O94   1.280       .  A
Ti82         O95   2.140       .  S
Ti82         O98   2.172       .  S
Ti82         O84   2.154       .  S
Ti82        O101   2.157       .  S
Ti83        O128   2.158   1_455  S
Ti83        O123   2.156   1_455  S
Ti83        O102   2.145       .  S
Ti83        O100   2.118       .  S
Ti83         O97   2.152       .  S
Ti83        O106   2.132       .  S
O84         Ti90   2.171       .  S
O85        Ti127   2.145   1_545  S
O85         Ti89   2.165       .  S
C86         C587   1.500       .  S
C86         O106   1.268       .  A
C86         O110   1.277       .  A
O87        Ti121   2.155       .  S
O87        Ti127   2.138       .  S
C88         C647   1.507       .  S
C88         O114   1.277       .  A
C88         O120   1.268       .  A
Ti89        O104   2.151       .  S
Ti89         O95   2.165       .  S
Ti89        O126   2.158       .  S
Ti89        O115   2.177       .  S
Ti89        O111   2.151       .  S
Ti90         O98   2.163       .  S
Ti90        O118   2.179   1_655  S
Ti90         O94   2.155       .  S
Ti90        O105   2.187   1_655  S
Ti91         O96   2.166       .  S
Ti91        O122   2.144       .  S
Ti91        O116   2.146       .  S
Ti91        O119   2.096       .  S
O92         C108   1.268       .  A
O92        Ti127   2.142       .  S
O93        Ti127   2.058       .  S
O96        Ti113   2.167       .  S
O97         C112   1.275       .  A
O99         C108   1.273       .  A
O99        Ti121   2.163       .  S
O100        C103   1.270   1_455  A
O102       Ti113   2.148   1_565  S
C103        C444   1.455       .  S
C103        O117   1.270       .  A
O104       Ti127   2.161   1_545  S
O105        C107   1.283       .  A
C107        C494   1.510       .  S
C107        O122   1.272       .  A
C108        C527   1.502       .  S
C109        C434   1.444       .  S
C109        O119   1.264       .  A
O110       Ti113   2.174   1_565  S
C112        C614   1.499       .  S
C112        O124   1.278       .  A
Ti113       O124   2.168   1_545  S
O114       Ti121   2.178       .  S
O116        C125   1.271       .  A
O117       Ti121   2.097       .  S
O118        C125   1.279       .  A
O120       Ti127   2.139       .  S
Ti121       O128   2.159       .  S
Ti121       O123   2.154       .  S
C125        C467   1.505       .  S
O129       Ti147   2.152       .  S
O129       Ti146   2.135       .  S
O130        C131   1.281       .  A
O130       Ti138   2.172       .  S
C131        C697   1.506       .  S
C131        O167   1.278       .  A
O132        C165   1.267       .  A
O132       Ti169   2.081       .  S
O133       Ti169   2.146       .  S
O133       Ti147   2.160       .  S
C134        C384   1.461       .  S
C134        O149   1.269       .  A
C134        O182   1.271       .  A
O135        C137   1.273       .  A
O135       Ti138   2.129       .  S
C136        C484   1.498       .  S
C136        O171   1.268       .  A
C136        O157   1.275       .  A
C137        C404   1.455       .  S
C137        O150   1.268       .  A
Ti138       O151   2.152       .  S
Ti138       O154   2.172       .  S
Ti138       O140   2.160       .  S
Ti138       O157   2.166       .  S
Ti139       O184   2.170       .  S
Ti139       O179   2.151       .  S
Ti139       O158   2.156   1_545  S
Ti139       O156   2.102       .  S
Ti139       O153   2.180   1_545  S
Ti139       O162   2.152   1_545  S
O140       Ti146   2.175   1_545  S
O141       Ti183   2.163       .  S
O141       Ti145   2.150       .  S
C142        C607   1.504       .  S
C142        O162   1.275       .  A
C142        O166   1.277       .  A
O143       Ti177   2.145       .  S
O143       Ti183   2.143   1_556  S
C144        C577   1.494       .  S
C144        O170   1.269       .  A
C144        O176   1.272       .  A
Ti145       O160   2.172       .  S
Ti145       O151   2.149       .  S
Ti145       O182   2.125       .  S
Ti145       O171   2.137       .  S
Ti145       O167   2.158       .  S
Ti146       O154   2.151   1_565  S
Ti146       O174   2.192       .  S
Ti146       O150   2.083   1_565  S
Ti146       O161   2.130       .  S
Ti147       O152   2.163       .  S
Ti147       O178   2.176       .  S
Ti147       O172   2.154       .  S
Ti147       O175   2.133       .  S
O148        C164   1.278       .  A
O148       Ti183   2.176   1_556  S
O149       Ti183   2.094       .  S
O152       Ti169   2.169       .  S
O153        C168   1.275       .  A
O155        C164   1.280       .  A
O155       Ti177   2.181       .  S
O156        C159   1.270       .  A
O158       Ti169   2.146   1_556  S
C159        C417   1.453       .  S
C159        O173   1.269       .  A
O160       Ti183   2.157       .  S
O161        C163   1.266       .  A
C163        C637   1.497       .  S
C163        O178   1.277       .  A
C164        C517   1.525       .  S
C165        C394   1.461       .  S
C165        O175   1.273       .  A
O166       Ti169   2.170   1_556  S
C168        C547   1.511       .  S
C168        O180   1.268       .  A
Ti169       O180   2.145   1_554  S
O170       Ti177   2.141       .  S
O172        C181   1.275       .  A
O173       Ti177   2.105       .  S
O174        C181   1.283       .  A
O176       Ti183   2.154   1_556  S
Ti177       O184   2.155       .  S
Ti177       O179   2.167       .  S
C181        C667   1.515       .  S
O185       Ti203   2.133       .  S
O185       Ti202   2.157   1_556  S
O186        C187   1.270       .  A
O186       Ti194   2.133       .  S
C187        C687   1.509       .  S
C187        O223   1.283       .  A
O188        C221   1.272       .  A
O188       Ti225   2.124       .  S
O189       Ti225   2.161       .  S
O189       Ti203   2.154       .  S
C190        C364   1.456       .  S
C190        O205   1.270       .  A
C190        O238   1.270       .  A
O191        C193   1.265       .  A
O191       Ti194   2.092       .  S
C192        C657   1.507       .  S
C192        O227   1.270       .  A
C192        O213   1.268       .  A
C193        C357   1.449       .  S
C193        O206   1.274       .  A
Ti194       O207   2.150       .  S
Ti194       O210   2.153       .  S
Ti194       O196   2.148       .  S
Ti194       O213   2.156       .  S
Ti195       O240   2.162   1_556  S
Ti195       O235   2.153   1_556  S
Ti195       O214   2.129       .  S
Ti195       O212   2.073   1_556  S
Ti195       O209   2.170       .  S
Ti195       O218   2.140       .  S
O196       Ti202   2.146       .  S
O197       Ti239   2.171   1_655  S
O197       Ti201   2.159       .  S
C198        C597   1.508       .  S
C198        O218   1.268       .  A
C198        O222   1.276       .  A
O199       Ti233   2.149       .  S
O199       Ti239   2.142       .  S
C200        C474   1.511       .  S
C200        O226   1.283       .  A
C200        O232   1.283       .  A
Ti201       O216   2.166       .  S
Ti201       O207   2.143       .  S
Ti201       O238   2.084       .  S
Ti201       O227   2.157       .  S
Ti201       O223   2.195       .  S
Ti202       O210   2.158       .  S
Ti202       O230   2.163   1_554  S
Ti202       O206   2.120       .  S
Ti202       O217   2.169   1_554  S
Ti203       O208   2.160       .  S
Ti203       O234   2.147       .  S
Ti203       O228   2.145       .  S
Ti203       O231   2.061       .  S
O204        C220   1.266       .  A
O204       Ti239   2.140       .  S
O205       Ti239   2.126   1_655  S
O208       Ti225   2.163       .  S
O209        C224   1.276       .  A
O211        C220   1.270       .  A
O211       Ti233   2.156       .  S
O212        C215   1.264       .  A
O214       Ti225   2.150   1_455  S
C215        C347   1.470       .  S
C215        O229   1.274       .  A
O216       Ti239   2.159   1_655  S
O217        C219   1.277       .  A
C219        C537   1.499       .  S
C219        O234   1.272       .  A
C220        C624   1.496       .  S
C221        C377   1.445       .  S
C221        O231   1.260       .  A
O222       Ti225   2.181   1_455  S
C224        C507   1.515       .  S
C224        O236   1.279       .  A
Ti225       O236   2.172   1_655  S
O226       Ti233   2.172       .  S
O228        C237   1.268       .  A
O229       Ti233   2.137       .  S
O230        C237   1.273       .  A
O232       Ti239   2.176       .  S
Ti233       O240   2.159       .  S
Ti233       O235   2.163       .  S
C237        C567   1.509       .  S
N241        C246   1.348       .  A
N241        C245   1.353       .  A
N241        H273   1.056       .  S
N242        C249   1.334       .  A
N242        C250   1.339       .  A
N243        C248   1.341       .  A
N243        C247   1.335       .  A
N243        H274   1.040       .  S
N244        C251   1.337       .  A
N244        C252   1.344       .  A
C245        C253   1.385       .  A
C245        C261   1.410       .  A
C246        C262   1.417       .  A
C246        C254   1.391       .  A
C247        C255   1.390       .  A
C247        C264   1.398       .  A
C248        C263   1.391       .  A
C248        C256   1.384       .  A
C249        C261   1.394       .  A
C249        C257   1.389       .  A
C250        C264   1.395       .  A
C250        C258   1.382       .  A
C251        C259   1.391       .  A
C251        C262   1.396       .  A
C252        C260   1.382       .  A
C252        C263   1.402       .  A
C253        C254   1.373       .  A
C253        H265   1.082       .  S
C254        H266   1.083       .  S
C255        C256   1.375       .  A
C255        H267   1.082       .  S
C256        H268   1.082   1_655  S
C257        C258   1.379       .  A
C257        H269   1.083       .  S
C258        H270   1.082       .  S
C259        C260   1.372       .  A
C259        H271   1.079       .  S
C260        H272   1.082       .  S
C261        C457   1.479       .  S
C262        C367   1.468       .  S
C263        C447   1.463       .  S
C264        C374   1.448       .  S
N275        C280   1.349       .  A
N275        C279   1.352       .  A
N275        H307   1.042       .  S
N276        C283   1.339   1_545  A
N276        C284   1.343       .  A
N277        C282   1.340       .  A
N277        C281   1.337       .  A
N277        H308   1.036       .  S
N278        C285   1.337   1_545  A
N278        C286   1.339       .  A
C279        C287   1.384       .  A
C279        C295   1.405       .  A
C280        C296   1.413       .  A
C280        C288   1.390       .  A
C281        C289   1.386       .  A
C281        C298   1.394       .  A
C282        C297   1.400       .  A
C282        C290   1.387       .  A
C283        C295   1.393       .  A
C283        C291   1.389       .  A
C284        C298   1.398       .  A
C284        C292   1.382   1_545  A
C285        C293   1.388       .  A
C285        C296   1.392       .  A
C286        C294   1.386       .  A
C286        C297   1.409       .  A
C287        C288   1.376       .  A
C287        H299   1.082       .  S
C288        H300   1.083       .  S
C289        C290   1.380       .  A
C289        H301   1.082       .  S
C290        H302   1.082       .  S
C291        C292   1.372       .  A
C291        H303   1.080       .  S
C292        H304   1.082       .  S
C293        C294   1.373   1_565  A
C293        H305   1.079       .  S
C294        H306   1.082       .  S
C295        C424   1.471       .  S
C296        C407   1.473       .  S
C297        C437   1.458       .  S
C298        C414   1.458       .  S
N309        C314   1.338       .  A
N309        C313   1.340       .  A
N309        H341   1.041       .  S
N310        C317   1.344   1_556  A
N310        C318   1.335       .  A
N311        C316   1.351       .  A
N311        C315   1.350       .  A
N311        H342   1.043       .  S
N312        C319   1.343       .  A
N312        C320   1.341   1_554  A
C313        C321   1.388       .  A
C313        C329   1.400       .  A
C314        C330   1.393       .  A
C314        C322   1.385       .  A
C315        C323   1.387       .  A
C315        C332   1.406       .  A
C316        C331   1.411       .  A
C316        C324   1.389       .  A
C317        C329   1.402       .  A
C317        C325   1.381   1_554  A
C318        C332   1.397       .  A
C318        C326   1.390       .  A
C319        C327   1.386       .  A
C319        C330   1.407       .  A
C320        C328   1.385       .  A
C320        C331   1.393       .  A
C321        C322   1.377       .  A
C321        H333   1.082       .  S
C322        H334   1.082       .  S
C323        C324   1.368       .  A
C323        H335   1.082       .  S
C324        H336   1.083       .  S
C325        C326   1.382       .  A
C325        H337   1.082       .  S
C326        H338   1.083       .  S
C327        C328   1.370   1_554  A
C327        H339   1.082       .  S
C328        H340   1.079       .  S
C329        C387   1.465       .  S
C330        C354   1.458       .  S
C331        C397   1.474   1_556  S
C332        C344   1.465       .  S
C343        C344   1.395       .  A
C343        C348   1.391       .  A
C343       Br350   1.933       .  S
C344        C345   1.416   1_556  A
C345        C346   1.400       .  A
C345       Br352   1.932       .  S
C346        C347   1.407       .  A
C346       Br351   1.932       .  S
C347        C348   1.419   1_554  A
C348       Br349   1.926       .  S
C353        C354   1.403       .  A
C353        C358   1.396       .  A
C353       Br360   1.931       .  S
C354        C355   1.404       .  A
C355        C356   1.395       .  A
C355       Br362   1.931       .  S
C356        C357   1.407       .  A
C356       Br361   1.931       .  S
C357        C358   1.410       .  A
C358       Br359   1.932       .  S
C363        C364   1.408       .  A
C363        C368   1.390       .  A
C363       Br370   1.924       .  S
C364        C365   1.396       .  A
C365        C366   1.401       .  A
C365       Br372   1.924   1_655  S
C366        C367   1.421       .  A
C366       Br371   1.931       .  S
C367        C368   1.400       .  A
C368       Br369   1.930       .  S
C373        C374   1.402       .  A
C373        C378   1.396       .  A
C373       Br380   1.928       .  S
C374        C375   1.404       .  A
C375        C376   1.390       .  A
C375       Br382   1.936       .  S
C376        C377   1.411       .  A
C376       Br381   1.938       .  S
C377        C378   1.410       .  A
C378       Br379   1.932       .  S
C383        C384   1.415       .  A
C383        C388   1.406       .  A
C383       Br390   1.932       .  S
C384        C385   1.406       .  A
C385        C386   1.392       .  A
C385       Br392   1.936   1_554  S
C386        C387   1.408       .  A
C386       Br391   1.934   1_554  S
C387        C388   1.406       .  A
C388       Br389   1.929       .  S
C393        C394   1.402       .  A
C393        C398   1.401       .  A
C393       Br400   1.931       .  S
C394        C395   1.413       .  A
C395        C396   1.394   1_554  A
C395       Br402   1.929   1_554  S
C396        C397   1.400   1_556  A
C396       Br401   1.930       .  S
C397        C398   1.421       .  A
C398       Br399   1.933       .  S
C403        C404   1.411   1_565  A
C403        C408   1.393       .  A
C403       Br410   1.928       .  S
C404        C405   1.398       .  A
C405        C406   1.399       .  A
C405       Br412   1.929       .  S
C406        C407   1.422   1_545  A
C406       Br411   1.929       .  S
C407        C408   1.400       .  A
C408       Br409   1.928       .  S
C413        C414   1.412       .  A
C413        C418   1.394       .  A
C413       Br420   1.936   1_545  S
C414        C415   1.398       .  A
C415        C416   1.397       .  A
C415       Br422   1.931       .  S
C416        C417   1.416       .  A
C416       Br421   1.931       .  S
C417        C418   1.406       .  A
C418       Br419   1.936   1_545  S
C423        C424   1.416   1_545  A
C423        C428   1.405       .  A
C423       Br430   1.928       .  S
C424        C425   1.394       .  A
C425        C426   1.394       .  A
C425       Br432   1.932       .  S
C426        C427   1.422   1_565  A
C426       Br431   1.936       .  S
C427        C428   1.411       .  A
C428       Br429   1.934       .  S
C433        C434   1.405       .  A
C433        C438   1.391       .  A
C433       Br440   1.934       .  S
C434        C435   1.407       .  A
C435        C436   1.399       .  A
C435       Br442   1.930       .  S
C436        C437   1.407       .  A
C436       Br441   1.930       .  S
C437        C438   1.403       .  A
C438       Br439   1.931       .  S
C443        C444   1.411       .  A
C443        C448   1.394       .  A
C443       Br450   1.935       .  S
C444        C445   1.407   1_655  A
C445        C446   1.400   1_455  A
C445       Br452   1.930       .  S
C446        C447   1.407       .  A
C446       Br451   1.929   1_655  S
C447        C448   1.404       .  A
C448       Br449   1.934       .  S
C453        C454   1.417       .  A
C453        C458   1.397       .  A
C453       Br460   1.922       .  S
C454        C455   1.406       .  A
C455        C456   1.406       .  A
C455       Br462   1.929       .  S
C456        C457   1.419       .  A
C456       Br461   1.930       .  S
C457        C458   1.396       .  A
C458       Br459   1.929       .  S
C463        C464   1.415       .  A
C463        C468   1.419       .  A
C463       Br470   1.930       .  S
C464        C465   1.416       .  A
C465        C466   1.421       .  A
C465       Br472   1.927       .  S
C466        C467   1.413       .  A
C466       Br471   1.927       .  S
C467        C468   1.414       .  A
C468       Br469   1.929       .  S
C473        C474   1.414       .  A
C473        C478   1.420       .  A
C473       Br480   1.923       .  S
C474        C475   1.418       .  A
C475        C476   1.421       .  A
C475       Br482   1.931       .  S
C476        C477   1.415       .  A
C476       Br481   1.928       .  S
C477        C478   1.414       .  A
C478       Br479   1.927       .  S
C483        C484   1.412       .  A
C483        C488   1.419       .  A
C483       Br490   1.929       .  S
C484        C485   1.412       .  A
C485        C486   1.416       .  A
C485       Br492   1.929       .  S
C486        C487   1.414       .  A
C486       Br491   1.927       .  S
C487        C488   1.416       .  A
C488       Br489   1.927       .  S
C493        C494   1.417       .  A
C493        C498   1.423       .  A
C493       Br500   1.929       .  S
C494        C495   1.414       .  A
C495        C496   1.421       .  A
C495       Br502   1.931       .  S
C496        C497   1.418       .  A
C496       Br501   1.926       .  S
C497        C498   1.417       .  A
C498       Br499   1.928       .  S
C503        C504   1.414       .  A
C503        C508   1.420       .  A
C503       Br510   1.926       .  S
C504        C505   1.416       .  A
C505        C506   1.425       .  A
C505       Br512   1.927       .  S
C506        C507   1.418       .  A
C506       Br511   1.925       .  S
C507        C508   1.416       .  A
C508       Br509   1.929       .  S
C513        C514   1.421       .  A
C513        C518   1.427       .  A
C513       Br520   1.930       .  S
C514        C515   1.420       .  A
C515        C516   1.426       .  A
C515       Br522   1.929       .  S
C516        C517   1.419       .  A
C516       Br521   1.931       .  S
C517        C518   1.418       .  A
C518       Br519   1.929       .  S
C523        C524   1.415       .  A
C523        C528   1.417       .  A
C523       Br530   1.930       .  S
C524        C525   1.419       .  A
C525        C526   1.421       .  A
C525       Br532   1.928       .  S
C526        C527   1.412       .  A
C526       Br531   1.929       .  S
C527        C528   1.413       .  A
C528       Br529   1.930       .  S
C533        C534   1.413       .  A
C533        C538   1.418       .  A
C533       Br540   1.928       .  S
C534        C535   1.413       .  A
C535        C536   1.418       .  A
C535       Br542   1.927       .  S
C536        C537   1.411       .  A
C536       Br541   1.924       .  S
C537        C538   1.414       .  A
C538       Br539   1.930       .  S
C543        C544   1.415       .  A
C543        C548   1.423       .  A
C543       Br550   1.928       .  S
C544        C545   1.414       .  A
C545        C546   1.420       .  A
C545       Br552   1.929       .  S
C546        C547   1.415       .  A
C546       Br551   1.928       .  S
C547        C548   1.416       .  A
C548       Br549   1.926       .  S
C553        C554   1.418       .  A
C553        C558   1.419       .  A
C553       Br560   1.933       .  S
C554        C555   1.421       .  A
C555        C556   1.421       .  A
C555       Br562   1.930       .  S
C556        C557   1.414       .  A
C556       Br561   1.930       .  S
C557        C558   1.417       .  A
C558       Br559   1.931       .  S
C563        C564   1.417       .  A
C563        C568   1.422       .  A
C563       Br570   1.930       .  S
C564        C565   1.418       .  A
C565        C566   1.419       .  A
C565       Br572   1.928       .  S
C566        C567   1.414       .  A
C566       Br571   1.931       .  S
C567        C568   1.418       .  A
C568       Br569   1.931       .  S
C573        C574   1.414       .  A
C573        C578   1.417       .  A
C573       Br580   1.926       .  S
C574        C575   1.412       .  A
C575        C576   1.415       .  A
C575       Br582   1.927       .  S
C576        C577   1.412       .  A
C576       Br581   1.930       .  S
C577        C578   1.411       .  A
C578       Br579   1.927       .  S
C583        C584   1.413       .  A
C583        C588   1.416       .  A
C583       Br590   1.930       .  S
C584        C585   1.415       .  A
C585        C586   1.418       .  A
C585       Br592   1.927       .  S
C586        C587   1.412       .  A
C586       Br591   1.929       .  S
C587        C588   1.415       .  A
C588       Br589   1.928       .  S
C593        C594   1.413       .  A
C593        C598   1.421       .  A
C593       Br600   1.928       .  S
C594        C595   1.414       .  A
C595        C596   1.420       .  A
C595       Br602   1.927       .  S
C596        C597   1.413       .  A
C596       Br601   1.923       .  S
C597        C598   1.416       .  A
C598       Br599   1.927       .  S
C603        C604   1.416       .  A
C603        C608   1.422       .  A
C603       Br610   1.928       .  S
C604        C605   1.413       .  A
C605        C606   1.416       .  A
C605       Br612   1.929       .  S
C606        C607   1.415       .  A
C606       Br611   1.932       .  S
C607        C608   1.414       .  A
C608       Br609   1.927       .  S
C613        C614   1.412       .  A
C613        C618   1.420       .  A
C613       Br620   1.927       .  S
C614        C615   1.411       .  A
C615        C616   1.416       .  A
C615       Br622   1.931       .  S
C616        C617   1.416       .  A
C616       Br621   1.927       .  S
C617        C618   1.419       .  A
C618       Br619   1.929       .  S
C623        C624   1.413       .  A
C623        C628   1.418       .  A
C623       Br630   1.929       .  S
C624        C625   1.411       .  A
C625        C626   1.414       .  A
C625       Br632   1.924       .  S
C626        C627   1.412       .  A
C626       Br631   1.930       .  S
C627        C628   1.415       .  A
C628       Br629   1.926       .  S
C633        C634   1.412       .  A
C633        C638   1.417       .  A
C633       Br640   1.929       .  S
C634        C635   1.411       .  A
C635        C636   1.414       .  A
C635       Br642   1.929       .  S
C636        C637   1.413       .  A
C636       Br641   1.928       .  S
C637        C638   1.414       .  A
C638       Br639   1.922       .  S
C643        C644   1.414       .  A
C643        C648   1.419       .  A
C643       Br650   1.930       .  S
C644        C645   1.417       .  A
C645        C646   1.420       .  A
C645       Br652   1.929       .  S
C646        C647   1.413       .  A
C646       Br651   1.929       .  S
C647        C648   1.416       .  A
C648       Br649   1.925       .  S
C653        C654   1.414       .  A
C653        C658   1.421       .  A
C653       Br660   1.927       .  S
C654        C655   1.412       .  A
C655        C656   1.419       .  A
C655       Br662   1.928       .  S
C656        C657   1.415       .  A
C656       Br661   1.928       .  S
C657        C658   1.413       .  A
C658       Br659   1.923       .  S
C663        C664   1.420       .  A
C663        C668   1.425       .  A
C663       Br670   1.928       .  S
C664        C665   1.416       .  A
C665        C666   1.421       .  A
C665       Br672   1.931       .  S
C666        C667   1.416       .  A
C666       Br671   1.925       .  S
C667        C668   1.415       .  A
C668       Br669   1.928       .  S
C673        C674   1.412       .  A
C673        C678   1.414       .  A
C673       Br680   1.927       .  S
C674        C675   1.411       .  A
C675        C676   1.415       .  A
C675       Br682   1.927       .  S
C676        C677   1.412       .  A
C676       Br681   1.927       .  S
C677        C678   1.411       .  A
C678       Br679   1.929       .  S
C683        C684   1.419       .  A
C683        C688   1.421       .  A
C683       Br690   1.928       .  S
C684        C685   1.415       .  A
C685        C686   1.421       .  A
C685       Br692   1.930       .  S
C686        C687   1.418       .  A
C686       Br691   1.931       .  S
C687        C688   1.412       .  A
C688       Br689   1.926       .  S
C693        C694   1.418       .  A
C693        C698   1.418       .  A
C693       Br700   1.930       .  S
C694        C695   1.417       .  A
C695        C696   1.422       .  A
C695       Br702   1.927       .  S
C696        C697   1.414       .  A
C696       Br701   1.928       .  S
C697        C698   1.414       .  A
C698       Br699   1.931       .  S
