geometry optimzed in LAMMPS
_audit_creation_date              2020-12-01 
_audit_creation_method            'lammps2cif' 
_symmetry_space_group_name_H-M    'P1' 
_symmetry_Int_Tables_number       1 
_symmetry_cell_setting            triclinic 
loop_ 
_symmetry_equiv_pos_as_xyz 
  x,y,z 
_cell_length_a                    33.16761001 
_cell_length_b                    34.52342029855466 
_cell_length_c                    34.1606907303185 
_cell_angle_alpha                 79.13212975297175 
_cell_angle_beta                  96.05672756089321 
_cell_angle_gamma                 96.71003655374511 
loop_ 
_atom_site_label 
_atom_site_type_symbol 
_atom_site_fract_x 
_atom_site_fract_y 
_atom_site_fract_z 
_atom_site_charge 
N1          N  0.95191892  0.04463284  0.48756276    -0.36900
N2          N  0.95818962  0.95881504  0.49296008    -0.57500
N3          N  0.04522829  0.97335190  0.49633517    -0.36900
N4          N  0.03926941  0.05809134  0.49553947    -0.57500
C5          C  0.91307147  0.02975354  0.49319165     0.26700
C6          C  0.95621108  0.08226672  0.49482077     0.26700
C7          C  0.04184650  0.93321252  0.50297266     0.26700
C8          C  0.08491262  0.98597496  0.50320580     0.26700
C9          C  0.91747062  0.95922185  0.48592118     0.35300
C10         C  0.96644965  0.92185307  0.49082764     0.35300
C11         C  0.03071041  0.09619657  0.48957520     0.35300
C12         C  0.07946435  0.05934315  0.49177377     0.35300
C13         C  0.89203448  0.05886923  0.50259540    -0.22200
C14         C  0.91932674  0.09180817  0.50392935    -0.22200
C15         C  0.08004831  0.92011988  0.51379994    -0.22200
C16         C  0.10728309  0.95340071  0.51375661    -0.22200
C17         C  0.89974227  0.92208007  0.47987193    -0.23200
C18         C  0.93075268  0.89853543  0.48279444    -0.23200
C19         C  0.06562182  0.12171769  0.48247867    -0.23200
C20         C  0.09653564  0.09845118  0.48414067    -0.23200
C21         C  0.89556464  0.99116778  0.48882193    -0.18600
C22         C  0.99234570  0.10844909  0.49291501    -0.18600
C23         C  0.10177116  0.02601729  0.49714570    -0.18600
C24         C  0.00553637  0.90819398  0.49766599    -0.18600
H25         H  0.86025669  0.05682053  0.50805345     0.14300
H26         H  0.91269169  0.11957597  0.51091901     0.14300
H27         H  0.08762467  0.88977946  0.52041448     0.14300
H28         H  0.13992941  0.95344434  0.52017738     0.14300
H29         H  0.86772269  0.91246501  0.47467583     0.12600
H30         H  0.92727573  0.86762167  0.47985461     0.12600
H31         H  0.06864563  0.15379638  0.47696673     0.12600
H32         H  0.12810642  0.10935137  0.48059223     0.12600
H33         H  0.97292849  0.03091651  0.47593104     0.25900
H34         H  0.02288512  0.99140784  0.48333420     0.25900
O35         O  0.96452060  0.51751197  0.39549000    -0.81200
O36         O  0.97993234  0.52975451  0.57594685    -0.65900
O37         O  0.00276902  0.53722757  0.46745653    -1.12500
C38         C  0.01450687  0.39892257  0.51202744     1.05700
O39         O  0.03713069  0.50181629  0.59262625    -0.79100
O40         O  0.08044047  0.46720486  0.54822707    -0.66700
Ni41       Ni  0.96801531  0.56152468  0.42401073     1.34900
C42         C  0.09260611  0.48263968  0.51420005     0.84400
O43         O  0.98618030  0.59074720  0.51426072    -0.79600
O44         O  0.97024421  0.60837184  0.44808489    -0.89900
C45         C  0.00823663  0.51838671  0.60220314     0.84000
O46         O  0.91614515  0.54165758  0.44367397    -0.68100
O47         O  0.01925189  0.40694509  0.54737992    -0.87400
C48         C  0.90458097  0.52996418  0.47862010     0.84800
C49         C  0.97866023  0.61670813  0.48321691     1.06400
H50         H  0.96714628  0.46546393  0.52694705     0.38200
O51         O  0.99396852  0.47967415  0.52513813    -1.10000
O52         O  0.06760607  0.49221753  0.48375689    -0.66700
Ni53       Ni  0.00869718  0.48192503  0.47262861     1.26300
O54         O  0.92982414  0.52617491  0.50985263    -0.66900
O55         O  0.01272387  0.42546067  0.48023646    -0.79200
C56         C  0.99355082  0.49844142  0.38999464     0.84200
O57         O  0.01972622  0.48687234  0.41833811    -0.66400
Ni58       Ni  0.02783403  0.45503881  0.56874015     1.27400
Ni59       Ni  0.98906695  0.53485872  0.52068995     1.26100
H60         H  0.02933005  0.55187526  0.46514870     0.38800
O61         O  0.40758918  0.01910395  0.46085014    -0.81200
O62         O  0.57068538  0.96524139  0.48446252    -0.65900
O63         O  0.46511389  0.97794325  0.50695803    -1.12500
C64         C  0.52802625  0.10410986  0.52893796     1.05700
O65         O  0.59193844  0.98169251  0.54318738    -0.79100
O66         O  0.55071906  0.01716135  0.58929652    -0.66700
Ni67       Ni  0.41988511  0.96517176  0.47168163     1.34900
C68         C  0.51436928  0.01333022  0.59912026     0.84400
O69         O  0.50079129  0.91695370  0.48552054    -0.79600
O70         O  0.43203226  0.91094541  0.48119378    -0.89900
C71         C  0.59862203  0.96886926  0.51211799     0.84000
O72         O  0.44274904  0.97314890  0.42123312    -0.68100
O73         O  0.56112853  0.08729433  0.53730898    -0.87400
C74         C  0.47824455  0.98366593  0.41001458     0.84800
C75         C  0.46612971  0.89643593  0.48283857     1.06400
H76         H  0.53608744  0.04059713  0.47762399     0.38200
O77         O  0.53041842  0.02372685  0.50281240    -1.10000
O78         O  0.48385094  0.01659716  0.57270774    -0.66700
Ni79       Ni  0.47791363  0.03205580  0.51386902     1.26300
O80         O  0.50874001  0.98915882  0.43531639    -0.66900
O81         O  0.49357153  0.08600781  0.51929599    -0.79200
C82         C  0.39772377  0.03522551  0.48844965     0.84200
O83         O  0.42280246  0.03916709  0.51852159    -0.66400
Ni84       Ni  0.57527989  0.03403292  0.53980756     1.27400
Ni85       Ni  0.51677289  0.97054378  0.49344190     1.26100
H86         H  0.46093183  0.96175053  0.53278570     0.38800
N87         N  0.49770359  0.94980279  0.05615452    -0.36900
N88         N  0.49944631  0.95376831  0.96843268    -0.57500
N89         N  0.49904355  0.03935010  0.95542776    -0.36900
N90         N  0.50369906  0.03587005  0.04389639    -0.57500
C91         C  0.50557023  0.91224517  0.05516690     0.26700
C92         C  0.50475574  0.95553758  0.09478094     0.26700
C93         C  0.50571635  0.03458197  0.91798774     0.26700
C94         C  0.50966292  0.07805403  0.95818964     0.26700
C95         C  0.49431984  0.91384701  0.98075438     0.35300
C96         C  0.49333277  0.96067656  0.92776949     0.35300
C97         C  0.49542520  0.02761660  0.08295838     0.35300
C98         C  0.49818981  0.07463851  0.03043228     0.35300
C99         C  0.51734963  0.89382708  0.09373768    -0.22200
C100        C  0.51690578  0.92100656  0.11856056    -0.22200
C101        C  0.52047709  0.07084957  0.89676460    -0.22200
C102        C  0.52307168  0.09807840  0.92199797    -0.22200
C103        C  0.48516689  0.89543734  0.94771787    -0.23200
C104        C  0.48407841  0.92487962  0.91445332    -0.23200
C105        C  0.48444624  0.06125153  0.09407757    -0.23200
C106        C  0.48631363  0.09087824  0.06107007    -0.23200
C107        C  0.50041365  0.89329709  0.02096545    -0.18600
C108        C  0.49937905  0.99067487  0.10930991    -0.18600
C109        C  0.50548378  0.09638075  0.99156424    -0.18600
C110        C  0.49865008  0.99853070  0.90227893    -0.18600
H111        H  0.52532350  0.86376368  0.10317453     0.14300
H112        H  0.52479742  0.91586187  0.15054068     0.14300
H113        H  0.52900494  0.07707455  0.86632749     0.14300
H114        H  0.53367453  0.12920322  0.91443999     0.14300
H115        H  0.48001561  0.86394447  0.94747692     0.12600
H116        H  0.47765061  0.92021979  0.88388524     0.12600
H117        H  0.47578274  0.06423854  0.12294231     0.12600
H118        H  0.47937492  0.12097260  0.05979437     0.12600
H119        H  0.48457915  0.96903055  0.03241403     0.25900
H120        H  0.48451377  0.01836974  0.97670057     0.25900
N121        N  0.96157148  0.48740681  0.03965309    -0.36900
N122        N  0.96068912  0.50203538  0.95312990    -0.57500
N123        N  0.04887409  0.49863037  0.96078089    -0.36900
N124        N  0.05039671  0.48953003  0.04689596    -0.57500
C125        C  0.92340730  0.49818874  0.02883455     0.26700
C126        C  0.97078156  0.49151316  0.07832555     0.26700
C127        C  0.04199840  0.51241300  0.92113432     0.26700
C128        C  0.08928043  0.50629806  0.97066360     0.26700
C129        C  0.92010045  0.49489798  0.95658030     0.35300
C130        C  0.96627871  0.50014858  0.91491707     0.35300
C131        C  0.04306409  0.47666672  0.08559332     0.35300
C132        C  0.08932694  0.48311556  0.04395861     0.35300
C133        C  0.90829026  0.50927143  0.06097155    -0.22200
C134        C  0.93814448  0.50512855  0.09212829    -0.22200
C135        C  0.07843483  0.52892451  0.90565729    -0.22200
C136        C  0.10825064  0.52509856  0.93691489    -0.22200
C137        C  0.89984515  0.48858841  0.92037499    -0.23200
C138        C  0.92908843  0.49187007  0.89399759    -0.23200
C139        C  0.07744412  0.46192679  0.10728576    -0.23200
C140        C  0.10680724  0.46611496  0.08090205    -0.23200
C141        C  0.90106945  0.49638420  0.99139197    -0.18600
C142        C  0.00695209  0.48125891  0.10211152    -0.18600
C143        C  0.10984124  0.49450214  0.00876530    -0.18600
C144        C  0.00420951  0.50826050  0.89806701    -0.18600
H145        H  0.87877490  0.51934831  0.06193926     0.14300
H146        H  0.93593276  0.51141314  0.12164430     0.14300
H147        H  0.08311893  0.54217777  0.87493787     0.14300
H148        H  0.14032160  0.53479760  0.93493876     0.14300
H149        H  0.86738848  0.48239349  0.91357036     0.12600
H150        H  0.92350787  0.48874893  0.86290427     0.12600
H151        H  0.08115570  0.44980363  0.13891391     0.12600
H152        H  0.13753508  0.45777918  0.08815007     0.12600
H153        H  0.97852891  0.47387016  0.02312725     0.25900
H154        H  0.02808024  0.48090147  0.97885892     0.25900
O155        O  0.54406726  0.59266464  0.00149510    -0.81200
O156        O  0.52330757  0.42020764  0.97083301    -0.65900
O157        O  0.50029972  0.52596516  0.97642658    -1.12500
C158        C  0.48830246  0.46924140  0.11204826     1.05700
O159        O  0.46758718  0.39788171  0.00042782    -0.79100
O160        O  0.42418550  0.44143102  0.03458405    -0.66700
Ni161      Ni  0.53338663  0.57138509  0.95292976     1.34900
C162        C  0.41395388  0.47645174  0.02877657     0.84400
O163        O  0.51501384  0.48695125  0.91507519    -0.79600
O164        O  0.52420696  0.55379506  0.90274268    -0.89900
C165        C  0.49726492  0.39141841  0.98281517     0.84000
O166        O  0.58513228  0.55064932  0.96333016    -0.68100
O167        O  0.47910055  0.43674563  0.09909780    -0.87400
C168        C  0.59651969  0.51611491  0.97433645     0.84800
C169        C  0.51813522  0.52031796  0.89132107     1.06400
H170        H  0.53674294  0.45990731  0.04144959     0.38200
O171        O  0.50995870  0.46408535  0.02833054    -1.10000
O172        O  0.43983798  0.50692713  0.02733401    -0.66700
Ni173      Ni  0.49877230  0.51620661  0.03321275     1.26300
O174        O  0.57150717  0.48509322  0.97990196    -0.66900
O175        O  0.49780324  0.50275302  0.09010629    -0.79200
C176        C  0.51620911  0.59955290  0.02128559     0.84200
O177        O  0.49079892  0.57086546  0.03524012    -0.66400
Ni178      Ni  0.47454596  0.41925023  0.04906786     1.27400
Ni179      Ni  0.51305578  0.47421722  0.97195695     1.26100
H180        H  0.47291543  0.52885922  0.96412124     0.38800
O181        O  0.45589508  0.49246382  0.40587638    -0.81200
O182        O  0.48244491  0.53203568  0.57369512    -0.65900
O183        O  0.49798873  0.52724290  0.46656117    -1.12500
C184        C  0.52985972  0.39663182  0.52713512     1.05700
O185        O  0.54410279  0.51319570  0.58596026    -0.79100
O186        O  0.58846333  0.47447357  0.54738503    -0.66700
Ni187      Ni  0.45887498  0.54270508  0.42354474     1.34900
C188        C  0.59707103  0.48639149  0.51154826     0.84400
O189        O  0.47739678  0.58497001  0.50515119    -0.79600
O190        O  0.46013598  0.59418825  0.43856677    -0.89900
C191        C  0.51374607  0.52546515  0.59778371     0.84000
O192        O  0.40964760  0.52513047  0.44872372    -0.68100
O193        O  0.53495934  0.40908435  0.56048786    -0.87400
C194        C  0.40078548  0.51544422  0.48472175     0.84800
C195        C  0.46781323  0.60690319  0.47173958     1.06400
H196        H  0.47446555  0.45964773  0.53625530     0.38200
O197        O  0.49932455  0.47641093  0.53052295    -1.10000
O198        O  0.56925670  0.49095145  0.48267263    -0.66700
Ni199      Ni  0.51074661  0.47339655  0.47851185     1.26300
O200        O  0.42821828  0.51456710  0.51422535    -0.66900
O201        O  0.52228567  0.41892662  0.49322483    -0.79200
C202        C  0.48658888  0.47651811  0.39908396     0.84200
O203        O  0.51694750  0.47197424  0.42465806    -0.66400
Ni204      Ni  0.53897022  0.46135144  0.57299494     1.27400
Ni205      Ni  0.48730680  0.53052958  0.51902079     1.26100
H206        H  0.52277689  0.54413111  0.46075567     0.38800
C207        C  0.51926649  0.48905653  0.79147897    -0.11100
C208        C  0.51218866  0.52455360  0.76516930     0.06000
C209        C  0.50542692  0.55790402  0.78035406    -0.09900
C210        C  0.50681684  0.55617618  0.82143981    -0.11500
C211        C  0.51467813  0.52094119  0.84798830    -0.01300
C212        C  0.52025564  0.48716841  0.83267907    -0.10400
C213        C  0.51331902  0.52719539  0.72197222     0.06000
H214        H  0.50016053  0.58557002  0.76046322     0.08000
H215        H  0.50204204  0.58259858  0.83241229     0.11400
H216        H  0.52630695  0.45967055  0.85248904     0.11700
H217        H  0.52420251  0.46289920  0.78010231     0.08000
C218        C  0.54581702  0.51326188  0.70758529    -0.11100
C219        C  0.54663319  0.51444205  0.66686221    -0.10400
C220        C  0.51469449  0.52919680  0.63987136    -0.01300
C221        C  0.48273688  0.54431542  0.65411333    -0.11500
C222        C  0.48219113  0.54352711  0.69502368    -0.09900
H223        H  0.57047085  0.50125499  0.72792400     0.08000
H224        H  0.57173505  0.50263124  0.65670835     0.11700
H225        H  0.45784561  0.55587023  0.63382572     0.11400
H226        H  0.45693167  0.55454830  0.70575613     0.08000
C227        C  0.51481805  0.48770958  0.21704876    -0.11100
C228        C  0.48918749  0.45751821  0.23832998     0.06000
C229        C  0.46252812  0.43224424  0.21774933    -0.09900
C230        C  0.46184077  0.43678516  0.17644223    -0.11500
C231        C  0.48764028  0.46679905  0.15513088    -0.01300
C232        C  0.51389040  0.49248177  0.17559119    -0.10400
C233        C  0.48842497  0.45442528  0.28160935     0.06000
H234        H  0.44242436  0.40892259  0.23363930     0.08000
H235        H  0.44109627  0.41677646  0.16111649     0.11400
H236        H  0.53411976  0.51564818  0.15967137     0.11700
H237        H  0.53502620  0.50803659  0.23244150     0.08000
C238        C  0.52498335  0.45817217  0.30585026    -0.11100
C239        C  0.52426047  0.46262401  0.34535395    -0.10400
C240        C  0.48696650  0.46377409  0.36077145    -0.01300
C241        C  0.45032880  0.45686390  0.33751213    -0.11500
C242        C  0.45105113  0.45196935  0.29813687    -0.09900
H243        H  0.55407357  0.45943341  0.29368660     0.08000
H244        H  0.55287615  0.46771384  0.36295276     0.11700
H245        H  0.42123350  0.45709902  0.34915677     0.11400
H246        H  0.42249173  0.44899620  0.27988974     0.08000
C247        C  0.78966580  0.47174924  0.01268542    -0.11100
C248        C  0.77085752  0.50229467  0.98647924     0.06000
C249        C  0.79523300  0.53008713  0.96094969    -0.09900
C250        C  0.83723724  0.52794057  0.96221598    -0.11500
C251        C  0.85590842  0.49761470  0.98858989    -0.01300
C252        C  0.83163900  0.46935209  0.01356760    -0.10400
C253        C  0.72617130  0.50544667  0.98570101     0.06000
H254        H  0.78185100  0.55352696  0.93975338     0.08000
H255        H  0.85529401  0.55018442  0.94278671     0.11400
H256        H  0.84539572  0.44574368  0.03424556     0.11700
H257        H  0.77213724  0.45009879  0.03312105     0.08000
C258        C  0.69805415  0.47138640  0.99124152    -0.11100
C259        C  0.65605059  0.47468718  0.98852587    -0.10400
C260        C  0.64108666  0.51213184  0.98009197    -0.01300
C261        C  0.66927190  0.54610999  0.97567015    -0.11500
C262        C  0.71113158  0.54281453  0.97858643    -0.09900
H263        H  0.70836053  0.44209004  0.99651711     0.08000
H264        H  0.63527814  0.44787160  0.99215543     0.11700
H265        H  0.65901448  0.57547168  0.96954394     0.11400
H266        H  0.73174378  0.56972546  0.97523061     0.08000
C267        C  0.31309383  0.52221698  0.01668668    -0.11100
C268        C  0.28488380  0.48821897  0.02033520     0.06000
C269        C  0.29956169  0.45081720  0.02689182    -0.09900
C270        C  0.34122896  0.44733689  0.02907054    -0.11500
C271        C  0.36962189  0.48119009  0.02482348    -0.01300
C272        C  0.35507579  0.51874876  0.01883949    -0.10400
C273        C  0.24018852  0.49116062  0.01667468     0.06000
H274        H  0.27872472  0.42404767  0.03068120     0.08000
H275        H  0.35114132  0.41785902  0.03439665     0.11400
H276        H  0.37607963  0.54540881  0.01586544     0.05100
H277        H  0.30264908  0.55146579  0.01150209     0.08000
C278        C  0.22338061  0.51761140  0.03558929    -0.11100
C279        C  0.18104799  0.51877183  0.03316057    -0.10400
C280        C  0.15489095  0.49369995  0.01158625    -0.01300
C281        C  0.17166682  0.46773253  0.99228673    -0.11500
C282        C  0.21380181  0.46644995  0.99481048    -0.09900
H283        H  0.24289717  0.53677908  0.05288254     0.08000
H284        H  0.16862975  0.53912121  0.04814613     0.11700
H285        H  0.15201563  0.44829823  0.97537310     0.11400
H286        H  0.22581320  0.44617329  0.97943570     0.08000
C287        C  0.46999674  0.78139505  0.03217559    -0.11100
C288        C  0.50783981  0.76614506  0.03318551     0.06000
C289        C  0.54324470  0.79326413  0.03256215    -0.09900
C290        C  0.54080337  0.83413418  0.02950566    -0.11500
C291        C  0.50296917  0.84923632  0.02733495    -0.01300
C292        C  0.46762322  0.82236388  0.02925735    -0.10400
C293        C  0.51044512  0.72284213  0.03245271     0.06000
H294        H  0.57306329  0.78296775  0.03413367     0.08000
H295        H  0.56851573  0.85415044  0.02823871     0.11400
H296        H  0.43804900  0.83325818  0.02749629     0.11700
H297        H  0.44198840  0.76186828  0.03218094     0.08000
C298        C  0.48332474  0.69228931  0.05183903    -0.11100
C299        C  0.48531659  0.65215850  0.04922289    -0.10400
C300        C  0.51452681  0.64143223  0.02719289    -0.01300
C301        C  0.54182829  0.67197466  0.00839938    -0.11500
C302        C  0.53977669  0.71174844  0.01088544    -0.09900
H303        H  0.46051792  0.69935055  0.06910948     0.08000
H304        H  0.46374534  0.62962620  0.06407810     0.11700
H305        H  0.56458363  0.66530866  0.99079971     0.11400
H306        H  0.56068283  0.73399670  0.99474685     0.08000
C307        C  0.47982114  0.20309748  0.95485767    -0.11100
C308        C  0.50814432  0.22471178  0.97832832     0.06000
C309        C  0.53711846  0.20397865  0.00472965    -0.09900
C310        C  0.53696916  0.16266923  0.00831894    -0.11500
C311        C  0.50798040  0.14101210  0.98546487    -0.01300
C312        C  0.47981903  0.16189930  0.95829550    -0.10400
C313        C  0.50585276  0.26817544  0.97674297     0.06000
H314        H  0.55907909  0.21953356  0.02355955     0.08000
H315        H  0.55899494  0.14740026  0.02958670     0.11400
H316        H  0.45711371  0.14609859  0.94036294     0.11700
H317        H  0.45732545  0.21809856  0.93397889     0.08000
C318        C  0.54104899  0.29544747  0.97584095    -0.11100
C319        C  0.53834091  0.33596762  0.97561525    -0.10400
C320        C  0.50046679  0.34999389  0.97717747    -0.01300
C321        C  0.46538417  0.32271578  0.97769967    -0.11500
C322        C  0.46798777  0.28259142  0.97712901    -0.09900
H323        H  0.57069103  0.28539026  0.97539842     0.08000
H324        H  0.56599868  0.35601996  0.97574777     0.11700
H325        H  0.43573524  0.33232994  0.97920098     0.11400
H326        H  0.44032775  0.26250360  0.97828815     0.08000
C327        C  0.42850127  0.79026092  0.47272783    -0.11100
C328        C  0.46533269  0.77339336  0.47460694     0.06000
C329        C  0.50225324  0.79716563  0.47919772    -0.09900
C330        C  0.50243257  0.83694307  0.48214148    -0.11500
C331        C  0.46564537  0.85389545  0.48070101    -0.01300
C332        C  0.42863394  0.83009799  0.47588575    -0.10400
C333        C  0.46553306  0.73079006  0.47327121     0.06000
H334        H  0.53107942  0.78497640  0.48029255     0.08000
H335        H  0.53149942  0.85440775  0.48546325     0.11400
H336        H  0.39974127  0.84222419  0.47449145     0.11700
H337        H  0.39963084  0.77243025  0.46957380     0.08000
C338        C  0.49143442  0.70774868  0.50093039    -0.11100
C339        C  0.49175990  0.66753270  0.50038512    -0.10400
C340        C  0.46662030  0.64951041  0.47179377    -0.01300
C341        C  0.44095548  0.67254503  0.44373614    -0.11500
C342        C  0.44010581  0.71282839  0.44474125    -0.09900
H343        H  0.51108076  0.72076463  0.52342503     0.08000
H344        H  0.51208395  0.65056197  0.52216970     0.11700
H345        H  0.42123885  0.65930703  0.42143965     0.11400
H346        H  0.42002899  0.73006954  0.42294811     0.08000
C347        C  0.54932020  0.28905492  0.56325810    -0.11100
C348        C  0.53341626  0.27204207  0.52993232     0.06000
C349        C  0.51783118  0.29649175  0.49536180    -0.09900
C350        C  0.51742390  0.33701570  0.49426754    -0.11500
C351        C  0.53230258  0.35399504  0.52786857    -0.01300
C352        C  0.54857537  0.32964990  0.56232157    -0.10400
C353        C  0.53204880  0.22881437  0.53114533     0.06000
H354        H  0.50592765  0.28420385  0.46906059     0.08000
H355        H  0.50475423  0.35491196  0.46727119     0.11400
H356        H  0.56051473  0.34190432  0.58863588     0.11700
H357        H  0.56138170  0.27080824  0.59032611     0.08000
C358        C  0.56593945  0.20812692  0.54661247    -0.11100
C359        C  0.56477547  0.16758665  0.54598512    -0.10400
C360        C  0.52952131  0.14693077  0.53026095    -0.01300
C361        C  0.49543590  0.16766066  0.51554426    -0.11500
C362        C  0.49673576  0.20809956  0.51591682    -0.09900
H363        H  0.59359914  0.22348461  0.55837100     0.08000
H364        H  0.59149562  0.15247800  0.55772552     0.11700
H365        H  0.46773964  0.15274102  0.50333492     0.11400
H366        H  0.46997129  0.22322551  0.50436246     0.08000
C367        C  0.52773540  0.97979300  0.80156308    -0.11100
C368        C  0.50088775  0.00121396  0.77282056     0.06000
C369        C  0.47326312  0.02216703  0.78747399    -0.09900
C370        C  0.47266038  0.02165734  0.82898444    -0.11500
C371        C  0.49959804  0.00016340  0.85743224    -0.01300
C372        C  0.52731608  0.97957178  0.84282414    -0.10400
C373        C  0.50289194  0.00239951  0.72816751     0.06000
H374        H  0.45241431  0.03957463  0.76683522     0.08000
H375        H  0.45094215  0.03801599  0.83893668     0.11400
H376        H  0.54867784  0.96287082  0.86358563     0.11700
H377        H  0.54909195  0.96259490  0.79233016     0.08000
C378        C  0.54025393  0.00024874  0.71283144    -0.11100
C379        C  0.54311367  0.00218906  0.67169447    -0.10400
C380        C  0.50882791  0.00660089  0.64355488    -0.01300
C381        C  0.47113220  0.00811041  0.65865591    -0.11500
C382        C  0.46822205  0.00605944  0.70019218    -0.09900
H383        H  0.56800401  0.99822505  0.73249669     0.08000
H384        H  0.57289053  0.00117449  0.66185314     0.11700
H385        H  0.44397162  0.01172340  0.63829702     0.11400
H386        H  0.43866084  0.00733240  0.71033343     0.08000
C387        C  0.52489960  0.99807334  0.30846534    -0.11100
C388        C  0.49068228  0.98898215  0.28207103     0.06000
C389        C  0.45265982  0.98020630  0.29835027    -0.09900
C390        C  0.44900415  0.97968224  0.33910945    -0.11500
C391        C  0.48315674  0.98794920  0.36572990    -0.01300
C392        C  0.52122666  0.99744937  0.34956587    -0.10400
C393        C  0.49414023  0.98845678  0.23805711     0.06000
H394        H  0.42525560  0.97392756  0.27950324     0.08000
H395        H  0.41901278  0.97218697  0.34985643     0.11400
H396        H  0.54835842  0.00372863  0.36880705     0.11700
H397        H  0.55488484  0.00472997  0.29765316     0.08000
C398        C  0.52318996  0.01432560  0.21594724    -0.11100
C399        C  0.52536184  0.01451109  0.17483042    -0.10400
C400        C  0.49846647  0.98901713  0.15408252    -0.01300
C401        C  0.46988377  0.96273627  0.17615515    -0.11500
C402        C  0.46781466  0.96237429  0.21728571    -0.09900
H403        H  0.54383419  0.03520590  0.23015473     0.08000
H404        H  0.54789410  0.03507896  0.15897288     0.11700
H405        H  0.44871102  0.94263564  0.16138153     0.11400
H406        H  0.44551380  0.94129168  0.23283800     0.08000
C407        C  0.80128044  0.51573662  0.52277518    -0.11100
C408        C  0.77302748  0.51110893  0.48952442     0.06000
C409        C  0.78909100  0.51202088  0.45267567    -0.09900
C410        C  0.83149272  0.51748050  0.44931328    -0.11500
C411        C  0.85948045  0.52171150  0.48274766    -0.01300
C412        C  0.84358412  0.52051366  0.51953494    -0.10400
C413        C  0.72747934  0.50490447  0.49383252     0.06000
H414        H  0.76901384  0.50808908  0.42632918     0.08000
H415        H  0.84238468  0.51830421  0.42034834     0.11400
H416        H  0.86388387  0.52435469  0.54580274     0.11700
H417        H  0.79088622  0.51649863  0.55154526     0.08000
C418        C  0.71271600  0.48664451  0.53071636    -0.11100
C419        C  0.67097377  0.48155380  0.53593917    -0.10400
C420        C  0.64167400  0.49378225  0.50438673    -0.01300
C421        C  0.65592052  0.51126323  0.46701249    -0.11500
C422        C  0.69817217  0.51694944  0.46186968    -0.09900
H423        H  0.73335410  0.47547868  0.55589121     0.08000
H424        H  0.66166091  0.46725156  0.56505220     0.11700
H425        H  0.63448950  0.52082143  0.44183984     0.11400
H426        H  0.70775315  0.53135446  0.43292208     0.08000
C427        C  0.20760588  0.47734784  0.53909494    -0.11100
C428        C  0.22428743  0.49584603  0.50315910     0.06000
C429        C  0.19679119  0.51103418  0.47087681    -0.09900
C430        C  0.15439227  0.50734203  0.47433230    -0.11500
C431        C  0.13791755  0.48858150  0.51027885    -0.01300
C432        C  0.16539482  0.47391592  0.54261123    -0.10400
C433        C  0.26981768  0.49885202  0.49937308     0.06000
H434        H  0.20796699  0.52617583  0.44281175     0.08000
H435        H  0.13449645  0.51912711  0.44872998     0.11400
H436        H  0.15422375  0.45898992  0.57077606     0.11700
H437        H  0.22706235  0.46456786  0.56454022     0.08000
C438        C  0.29877041  0.50224930  0.53242146    -0.11100
C439        C  0.34111699  0.50589732  0.52845293    -0.10400
C440        C  0.35605610  0.50651192  0.49124445    -0.01300
C441        C  0.32711998  0.50211185  0.45853230    -0.11500
C442        C  0.28499552  0.49827471  0.46251318    -0.09900
H443        H  0.28883731  0.50327746  0.56133542     0.08000
H444        H  0.36213854  0.50956133  0.55427914     0.11700
H445        H  0.33702428  0.50216216  0.42931226     0.11400
H446        H  0.26432029  0.49471875  0.43644632     0.08000
C447        C  0.97291013  0.53284517  0.70013296    -0.11100
C448        C  0.00782007  0.52522192  0.72646311     0.06000
C449        C  0.04350477  0.51899594  0.71079846    -0.09900
C450        C  0.04379035  0.51828290  0.67019002    -0.11500
C451        C  0.00847329  0.52405944  0.64408345    -0.01300
C452        C  0.97323754  0.53229601  0.65923055    -0.10400
C453        C  0.00674015  0.52141955  0.77037777     0.06000
H454        H  0.07113253  0.51395581  0.73014606     0.08000
H455        H  0.07159031  0.51233535  0.65938922     0.11400
H456        H  0.94554902  0.53675416  0.63981687     0.11700
H457        H  0.94490482  0.53757728  0.71140431     0.08000
C458        C  0.98683451  0.54772100  0.78663843    -0.11100
C459        C  0.98599368  0.54357686  0.82811975    -0.10400
C460        C  0.00471478  0.51288346  0.85394106    -0.01300
C461        C  0.02450265  0.48659198  0.83776492    -0.11500
C462        C  0.02552999  0.49081119  0.79644248    -0.09900
H463        H  0.97241621  0.57175518  0.76732129     0.08000
H464        H  0.97085605  0.56432488  0.84015628     0.11700
H465        H  0.03903006  0.46268619  0.85722372     0.11400
H466        H  0.04052940  0.46968128  0.78482823     0.08000
C467        C  0.96387571  0.48031155  0.28451965    -0.11100
C468        C  0.00185221  0.47672446  0.27156602     0.06000
C469        C  0.03672265  0.47778432  0.29868622    -0.09900
C470        C  0.03379806  0.48337618  0.33773860    -0.11500
C471        C  0.99606462  0.48875627  0.35008925    -0.01300
C472        C  0.96106315  0.48664147  0.32329972    -0.10400
C473        C  0.00531292  0.47499533  0.22907302     0.06000
H474        H  0.06630779  0.47486266  0.28944778     0.08000
H475        H  0.06126065  0.48493244  0.35781080     0.11400
H476        H  0.93157191  0.49042034  0.33217658     0.11700
H477        H  0.93658944  0.47988706  0.26411063     0.08000
C478        C  0.97749874  0.45008016  0.20880673    -0.11100
C479        C  0.97887462  0.45111652  0.16784277    -0.10400
C480        C  0.00760460  0.47758396  0.14633209    -0.01300
C481        C  0.03582555  0.50197009  0.16675345    -0.11500
C482        C  0.03493175  0.50042783  0.20779193    -0.09900
H483        H  0.95450094  0.43009563  0.22461609     0.08000
H484        H  0.95693072  0.43196074  0.15266094     0.11700
H485        H  0.05798645  0.52285257  0.15069034     0.11400
H486        H  0.05636720  0.52029579  0.22260280     0.08000
C487        C  0.20245118  0.05878502  0.45506121    -0.11100
C488        C  0.22959847  0.05263938  0.48959026     0.06000
C489        C  0.21421567  0.03851315  0.52702826    -0.09900
C490        C  0.17245925  0.02970544  0.52966021    -0.11500
C491        C  0.14592287  0.03410127  0.49484211    -0.01300
C492        C  0.16094470  0.04887711  0.45761040    -0.10400
C493        C  0.27370728  0.05586563  0.48594050     0.06000
H494        H  0.23443737  0.03282650  0.55404104     0.08000
H495        H  0.16083601  0.01881999  0.55859685     0.11400
H496        H  0.14036033  0.05315547  0.43067819     0.11700
H497        H  0.21338032  0.07040284  0.42595804     0.08000
C498        C  0.28771332  0.04204653  0.45427364    -0.11100
C499        C  0.32868863  0.03807031  0.45392836    -0.10400
C500        C  0.35646693  0.04716921  0.48559000    -0.01300
C501        C  0.34315912  0.06359366  0.51591853    -0.11500
C502        C  0.30192180  0.06810584  0.51598375    -0.09900
H503        H  0.26679406  0.03174179  0.43101026     0.08000
H504        H  0.33809832  0.02552055  0.42998045     0.11700
H505        H  0.36419163  0.07123504  0.54040288     0.11400
H506        H  0.29189715  0.07957963  0.54032652     0.08000
C507        C  0.70587196  0.94234397  0.53513088    -0.11100
C508        C  0.72255054  0.95957949  0.49883206     0.06000
C509        C  0.69633024  0.97483778  0.46584809    -0.09900
C510        C  0.65507730  0.97481415  0.46970479    -0.11500
C511        C  0.63961816  0.96097247  0.50687440    -0.01300
C512        C  0.66485240  0.94396448  0.53939422    -0.10400
C513        C  0.76725146  0.96509586  0.49639277     0.06000
H514        H  0.70771042  0.98902142  0.43760285     0.08000
H515        H  0.63583893  0.98835120  0.44437906     0.11400
H516        H  0.65301737  0.93274284  0.56818659     0.11700
H517        H  0.72462530  0.92879519  0.56074027     0.08000
C518        C  0.79356762  0.97010709  0.53060097    -0.11100
C519        C  0.83531485  0.97787389  0.52805807    -0.10400
C520        C  0.85135935  0.98246693  0.49107538    -0.01300
C521        C  0.82567462  0.97767939  0.45678937    -0.11500
C522        C  0.78398468  0.96825833  0.45953952    -0.09900
H523        H  0.78211792  0.96919418  0.55927644     0.08000
H524        H  0.85513874  0.98135522  0.55474320     0.11700
H525        H  0.83806365  0.98064888  0.42814944     0.11400
H526        H  0.76507019  0.96359302  0.43272314     0.08000
C527        C  0.99462701  0.79676895  0.53190043    -0.11100
C528        C  0.00067656  0.78330155  0.49673049     0.06000
C529        C  0.01235985  0.81145164  0.46331930    -0.09900
C530        C  0.01595533  0.85201665  0.46438965    -0.11500
C531        C  0.00810874  0.86526675  0.49888893    -0.01300
C532        C  0.99818209  0.83741173  0.53289809    -0.10400
C533        C  0.99333946  0.74033791  0.49420221     0.06000
H534        H  0.01813578  0.80213718  0.43606324     0.08000
H535        H  0.02348130  0.87316758  0.43784601     0.11400
H536        H  0.99171372  0.84723522  0.55967353     0.11700
H537        H  0.98541541  0.77601678  0.55808806     0.08000
C538        C  0.00455824  0.71105015  0.52682636    -0.11100
C539        C  0.99850352  0.67084825  0.52374840    -0.10400
C540        C  0.98126556  0.65893716  0.48789261    -0.01300
C541        C  0.96896876  0.68816108  0.45572102    -0.11500
C542        C  0.97482747  0.72827361  0.45887707    -0.09900
H543        H  0.01903407  0.71923275  0.55442060     0.08000
H544        H  0.00844222  0.64918808  0.54913840     0.11700
H545        H  0.95521950  0.68010887  0.42781565     0.11400
H546        H  0.96478292  0.74990787  0.43352823     0.08000
C547        C  0.97348767  0.21720358  0.46903707    -0.11100
C548        C  0.99627062  0.23185529  0.50122816     0.06000
C549        C  0.01557536  0.20510733  0.53164196    -0.09900
C550        C  0.01277650  0.16487351  0.52959967    -0.11500
C551        C  0.99094904  0.15048480  0.49694520    -0.01300
C552        C  0.97085947  0.17682872  0.46691833    -0.10400
C553        C  0.00027070  0.27481475  0.50327944     0.06000
H554        H  0.03375800  0.21544843  0.55657386     0.08000
H555        H  0.02868890  0.14501503  0.55293608     0.11400
H556        H  0.95396464  0.16625764  0.44145679     0.11700
H557        H  0.95780003  0.23698523  0.44548056     0.08000
C558        C  0.00656574  0.30392813  0.46902575    -0.11100
C559        C  0.01135761  0.34431560  0.47157976    -0.10400
C560        C  0.01006854  0.35636126  0.50848544    -0.01300
C561        C  0.00356207  0.32711387  0.54258547    -0.11500
C562        C  0.99866139  0.28697117  0.53999542    -0.09900
H563        H  0.00844976  0.29544511  0.44038299     0.08000
H564        H  0.01635647  0.36604094  0.44477247     0.11700
H565        H  0.00183473  0.33519137  0.57145054     0.11400
H566        H  0.99320386  0.26537955  0.56679824     0.08000
loop_ 
_geom_bond_atom_site_label_1 
_geom_bond_atom_site_label_2 
_geom_bond_distance 
_geom_bond_site_symmetry_2 
_ccdc_geom_bond_type 
N1            C6   1.357       .  A
N1            C5   1.350       .  A
N1           H33   1.036       .  S
N2            C9   1.348       .  A
N2           C10   1.353       .  A
N3            C8   1.348       .  A
N3            C7   1.355       .  A
N3           H34   1.034       .  S
N4           C11   1.352       .  A
N4           C12   1.348       .  A
C5           C13   1.390       .  A
C5           C21   1.418   1_545  A
C6           C22   1.414       .  A
C6           C14   1.384       .  A
C7           C15   1.385       .  A
C7           C24   1.414       .  A
C8           C23   1.415   1_565  A
C8           C16   1.390       .  A
C9           C21   1.413       .  A
C9           C17   1.390       .  A
C10          C24   1.412   1_655  A
C10          C18   1.385       .  A
C11          C19   1.384       .  A
C11          C22   1.409   1_455  A
C12          C20   1.390       .  A
C12          C23   1.413       .  A
C13          C14   1.373       .  A
C13          H25   1.082       .  S
C14          H26   1.082       .  S
C15          C16   1.376       .  A
C15          H27   1.082       .  S
C16          H28   1.082       .  S
C17          C18   1.368       .  A
C17          H29   1.081       .  S
C18          H30   1.082       .  S
C19          C20   1.365       .  A
C19          H31   1.082       .  S
C20          H32   1.082       .  S
C21         C520   1.469       .  S
C22         C551   1.490       .  S
C23         C491   1.466       .  S
C24         C531   1.487       .  S
O35         Ni41   1.940       .  S
O35          C56   1.276       .  A
O36         Ni59   1.915       .  S
O36          C45   1.271   1_655  A
O37         Ni41   1.905   1_455  S
O37         Ni59   1.905   1_455  S
O37         Ni53   1.915       .  S
O37          H60   0.966       .  S
C38         C560   1.486       .  S
C38          O55   1.283       .  A
C38          O47   1.279       .  A
O39         Ni58   1.923       .  S
O39          C45   1.272       .  A
O40         Ni58   1.920       .  S
O40          C42   1.270       .  A
Ni41         O44   1.939       .  S
Ni41         O46   1.917       .  S
C42         C431   1.510       .  S
C42          O52   1.277       .  A
O43         Ni59   1.913       .  S
O43          C49   1.276       .  A
O44          C49   1.281       .  A
C45         C451   1.479       .  S
O46          C48   1.270       .  A
O47         Ni58   1.916       .  S
C48         C411   1.506       .  S
C48          O54   1.281       .  A
C49         C540   1.488       .  S
H50          O51   0.966       .  S
O51         Ni59   1.907       .  S
O51         Ni53   1.894   1_655  S
O51         Ni58   1.896   1_655  S
O52         Ni53   1.955       .  S
Ni53         O57   1.900       .  S
Ni53         O55   1.936       .  S
O54         Ni59   1.959       .  S
C56         C471   1.476       .  S
C56          O57   1.268   1_655  A
O61         Ni67   1.912   1_545  S
O61          C82   1.269       .  A
O62         Ni85   1.881       .  S
O62          C71   1.265       .  A
O63         Ni67   1.887       .  S
O63         Ni85   1.878       .  S
O63         Ni79   1.920   1_565  S
O63          H86   0.965       .  S
C64         C360   1.482       .  S
C64          O81   1.279       .  A
C64          O73   1.282       .  A
O65         Ni84   1.930   1_565  S
O65          C71   1.273       .  A
O66         Ni84   1.916       .  S
O66          C68   1.271       .  A
Ni67         O70   1.921       .  S
Ni67         O72   1.915       .  S
C68         C380   1.519       .  S
C68          O78   1.283       .  A
O69         Ni85   1.925       .  S
O69          C75   1.282       .  A
O70          C75   1.281       .  A
C71         C511   1.453       .  S
O72          C74   1.268       .  A
O73         Ni84   1.935       .  S
C74         C391   1.516       .  S
C74          O80   1.280       .  A
C75         C331   1.482       .  S
H76          O77   0.967       .  S
O77         Ni85   1.917   1_545  S
O77         Ni79   1.885       .  S
O77         Ni84   1.894       .  S
O78         Ni79   1.975       .  S
Ni79         O83   1.899       .  S
Ni79         O81   1.912       .  S
O80         Ni85   1.968       .  S
C82         C500   1.463       .  S
C82          O83   1.270       .  A
N87          C92   1.363       .  A
N87          C91   1.359       .  A
N87         H119   1.038       .  S
N88          C95   1.359       .  A
N88          C96   1.362       .  A
N89          C94   1.360       .  A
N89          C93   1.364       .  A
N89         H120   1.039       .  S
N90          C97   1.361       .  A
N90          C98   1.358       .  A
C91          C99   1.388       .  A
C91         C107   1.429       .  A
C92         C108   1.430       .  A
C92         C100   1.386       .  A
C93         C101   1.386       .  A
C93         C110   1.431   1_545  A
C94         C109   1.430       .  A
C94         C102   1.388       .  A
C95         C107   1.428   1_556  A
C95         C103   1.387       .  A
C96         C110   1.431       .  A
C96         C104   1.386       .  A
C97         C105   1.385       .  A
C97         C108   1.427   1_545  A
C98         C106   1.387       .  A
C98         C109   1.426   1_554  A
C99         C100   1.380       .  A
C99         H111   1.082       .  S
C100        H112   1.082       .  S
C101        C102   1.380       .  A
C101        H113   1.082       .  S
C102        H114   1.082       .  S
C103        C104   1.375       .  A
C103        H115   1.082       .  S
C104        H116   1.082       .  S
C105        C106   1.373       .  A
C105        H117   1.082       .  S
C106        H118   1.082       .  S
C107        C291   1.507       .  S
C108        C400   1.523       .  S
C109        C311   1.509       .  S
C110        C371   1.526   1_565  S
N121        C126   1.354       .  A
N121        C125   1.355       .  A
N121        H153   1.040       .  S
N122        C129   1.353       .  A
N122        C130   1.352       .  A
N123        C128   1.355       .  A
N123        C127   1.353       .  A
N123        H154   1.039       .  S
N124        C131   1.351       .  A
N124        C132   1.352       .  A
C125        C133   1.387       .  A
C125        C141   1.417   1_554  A
C126        C142   1.418   1_655  A
C126        C134   1.388       .  A
C127        C135   1.388       .  A
C127        C144   1.416       .  A
C128        C143   1.415   1_556  A
C128        C136   1.386       .  A
C129        C141   1.416       .  A
C129        C137   1.386       .  A
C130        C144   1.415   1_655  A
C130        C138   1.387       .  A
C131        C139   1.387       .  A
C131        C142   1.414       .  A
C132        C140   1.385       .  A
C132        C143   1.412       .  A
C133        C134   1.374       .  A
C133        H145   1.082       .  S
C134        H146   1.082       .  S
C135        C136   1.375       .  A
C135        H147   1.082       .  S
C136        H148   1.082       .  S
C137        C138   1.373       .  A
C137        H149   1.082       .  S
C138        H150   1.082       .  S
C139        C140   1.373       .  A
C139        H151   1.082       .  S
C140        H152   1.082       .  S
C141        C251   1.496       .  S
C142        C480   1.490       .  S
C143        C280   1.490       .  S
C144        C460   1.487       .  S
O155       Ni161   1.922   1_554  S
O155        C176   1.269       .  A
O156       Ni179   1.942       .  S
O156        C165   1.274       .  A
O157       Ni161   1.902       .  S
O157       Ni179   1.920       .  S
O157       Ni173   1.910   1_556  S
O157        H180   0.968       .  S
C158        C231   1.461       .  S
C158        O175   1.280       .  A
C158        O167   1.275       .  A
O159       Ni178   1.923       .  S
O159        C165   1.268   1_554  A
O160       Ni178   1.898       .  S
O160        C162   1.268       .  A
Ni161       O164   1.908       .  S
Ni161       O166   1.910       .  S
C162        C271   1.488       .  S
C162        O172   1.275       .  A
O163       Ni179   1.916       .  S
O163        C169   1.278       .  A
O164        C169   1.276       .  A
C165        C320   1.496       .  S
O166        C168   1.270       .  A
O167       Ni178   1.903       .  S
C168        C260   1.489       .  S
C168        O174   1.273       .  A
C169        C211   1.469       .  S
H170        O171   0.966       .  S
O171       Ni179   1.903   1_554  S
O171       Ni173   1.920       .  S
O171       Ni178   1.901       .  S
O172       Ni173   1.939       .  S
Ni173       O177   1.951       .  S
Ni173       O175   1.914       .  S
O174       Ni179   1.931       .  S
C176        C300   1.505       .  S
C176        O177   1.277       .  A
O181       Ni187   1.930       .  S
O181        C202   1.274       .  A
O182       Ni205   1.902       .  S
O182        C191   1.269       .  A
O183       Ni187   1.895       .  S
O183       Ni205   1.889       .  S
O183       Ni199   1.914       .  S
O183        H206   0.966       .  S
C184        C351   1.479       .  S
C184        O201   1.283       .  A
C184        O193   1.280       .  A
O185       Ni204   1.908       .  S
O185        C191   1.267       .  A
O186       Ni204   1.909       .  S
O186        C188   1.267       .  A
Ni187       O190   1.936       .  S
Ni187       O192   1.908       .  S
C188        C420   1.509       .  S
C188        O198   1.278       .  A
O189       Ni205   1.908       .  S
O189        C195   1.277       .  A
O190        C195   1.282       .  A
C191        C220   1.464       .  S
O192        C194   1.268       .  A
O193       Ni204   1.918       .  S
C194        C440   1.511       .  S
C194        O200   1.283       .  A
C195        C340   1.476       .  S
H196        O197   0.966       .  S
O197       Ni205   1.915       .  S
O197       Ni199   1.879       .  S
O197       Ni204   1.891       .  S
O198       Ni199   1.963       .  S
Ni199       O203   1.883       .  S
Ni199       O201   1.925       .  S
O200       Ni205   1.971       .  S
C202        C240   1.459       .  S
C202        O203   1.265       .  A
C207        C208   1.404       .  A
C207        C212   1.394       .  A
C207        H217   1.083       .  S
C208        C209   1.398       .  A
C208        C213   1.465       .  S
C209        C210   1.390       .  A
C209        H214   1.083       .  S
C210        C211   1.407       .  A
C210        H215   1.083       .  S
C211        C212   1.403       .  A
C212        H216   1.083       .  S
C213        C218   1.399       .  A
C213        C222   1.404       .  A
C218        C219   1.387       .  A
C218        H223   1.083       .  S
C219        C220   1.405       .  A
C219        H224   1.083       .  S
C220        C221   1.402       .  A
C221        C222   1.395       .  A
C221        H225   1.083       .  S
C222        H226   1.083       .  S
C227        C228   1.405       .  A
C227        C232   1.392       .  A
C227        H237   1.083       .  S
C228        C229   1.399       .  A
C228        C233   1.465       .  S
C229        C230   1.388       .  A
C229        H234   1.083       .  S
C230        C231   1.406       .  A
C230        H235   1.083       .  S
C231        C232   1.399       .  A
C232        H236   1.083       .  S
C233        C238   1.402       .  A
C233        C242   1.403       .  A
C238        C239   1.390       .  A
C238        H243   1.083       .  S
C239        C240   1.402       .  A
C239        H244   1.083       .  S
C240        C241   1.402       .  A
C241        C242   1.390       .  A
C241        H245   1.083       .  S
C242        H246   1.083       .  S
C247        C248   1.408   1_554  A
C247        C252   1.401       .  A
C247        H257   1.082       .  S
C248        C249   1.410       .  A
C248        C253   1.496       .  S
C249        C250   1.399       .  A
C249        H254   1.082       .  S
C250        C251   1.403       .  A
C250        H255   1.083       .  S
C251        C252   1.406   1_556  A
C252        H256   1.083       .  S
C253        C258   1.409       .  A
C253        C262   1.407       .  A
C258        C259   1.403       .  A
C258        H263   1.082       .  S
C259        C260   1.407       .  A
C259        H264   1.083       .  S
C260        C261   1.407       .  A
C261        C262   1.398       .  A
C261        H265   1.083       .  S
C262        H266   1.082       .  S
C267        C268   1.408       .  A
C267        C272   1.405       .  A
C267        H277   1.083       .  S
C268        C269   1.403       .  A
C268        C273   1.488       .  S
C269        C270   1.394       .  A
C269        H274   1.083       .  S
C270        C271   1.408       .  A
C270        H275   1.083       .  S
C271        C272   1.408       .  A
C272        H276   1.083       .  S
C273        C278   1.407       .  A
C273        C282   1.407   1_554  A
C278        C279   1.403       .  A
C278        H283   1.083       .  S
C279        C280   1.405       .  A
C279        H284   1.083       .  S
C280        C281   1.402   1_554  A
C281        C282   1.396       .  A
C281        H285   1.083       .  S
C282        H286   1.083       .  S
C287        C288   1.411       .  A
C287        C292   1.410       .  A
C287        H297   1.082       .  S
C288        C289   1.413       .  A
C288        C293   1.513       .  S
C289        C290   1.406       .  A
C289        H294   1.082       .  S
C290        C291   1.404       .  A
C290        H295   1.083       .  S
C291        C292   1.407       .  A
C292        H296   1.083       .  S
C293        C298   1.415       .  A
C293        C302   1.407       .  A
C298        C299   1.415       .  A
C298        H303   1.082       .  S
C299        C300   1.409       .  A
C299        H304   1.083       .  S
C300        C301   1.410       .  A
C301        C302   1.402       .  A
C301        H305   1.083   1_554  S
C302        H306   1.082   1_554  S
C307        C308   1.409       .  A
C307        C312   1.405       .  A
C307        H317   1.083       .  S
C308        C309   1.408   1_556  A
C308        C313   1.502       .  S
C309        C310   1.408       .  A
C309        H314   1.083       .  S
C310        C311   1.410   1_554  A
C310        H315   1.083       .  S
C311        C312   1.406       .  A
C312        H316   1.083       .  S
C313        C318   1.411       .  A
C313        C322   1.406       .  A
C318        C319   1.411       .  A
C318        H323   1.083       .  S
C319        C320   1.408       .  A
C319        H324   1.083       .  S
C320        C321   1.408       .  A
C321        C322   1.402       .  A
C321        H325   1.083       .  S
C322        H326   1.083       .  S
C327        C328   1.404       .  A
C327        C332   1.399       .  A
C327        H337   1.083       .  S
C328        C329   1.404       .  A
C328        C333   1.481       .  S
C329        C330   1.395       .  A
C329        H334   1.083       .  S
C330        C331   1.406       .  A
C330        H335   1.083       .  S
C331        C332   1.408       .  A
C332        H336   1.083       .  S
C333        C338   1.403       .  A
C333        C342   1.406       .  A
C338        C339   1.393       .  A
C338        H343   1.083       .  S
C339        C340   1.404       .  A
C339        H344   1.083       .  S
C340        C341   1.405       .  A
C341        C342   1.401       .  A
C341        H345   1.083       .  S
C342        H346   1.083       .  S
C347        C348   1.404       .  A
C347        C352   1.399       .  A
C347        H357   1.083       .  S
C348        C349   1.404       .  A
C348        C353   1.481       .  S
C349        C350   1.394       .  A
C349        H354   1.083       .  S
C350        C351   1.404       .  A
C350        H355   1.083       .  S
C351        C352   1.408       .  A
C352        H356   1.083       .  S
C353        C358   1.405       .  A
C353        C362   1.404       .  A
C358        C359   1.400       .  A
C358        H363   1.083       .  S
C359        C360   1.408       .  A
C359        H364   1.083       .  S
C360        C361   1.406       .  A
C361        C362   1.394       .  A
C361        H365   1.083       .  S
C362        H366   1.083       .  S
C367        C368   1.414   1_565  A
C367        C372   1.410       .  A
C367        H377   1.082       .  S
C368        C369   1.415       .  A
C368        C373   1.526       .  S
C369        C370   1.417       .  A
C369        H374   1.082       .  S
C370        C371   1.412       .  A
C370        H375   1.083       .  S
C371        C372   1.408   1_545  A
C372        H376   1.083       .  S
C373        C378   1.410       .  A
C373        C382   1.417       .  A
C378        C379   1.407       .  A
C378        H383   1.082   1_545  S
C379        C380   1.412       .  A
C379        H384   1.083       .  S
C380        C381   1.412       .  A
C381        C382   1.420       .  A
C381        H385   1.083       .  S
C382        H386   1.082       .  S
C387        C388   1.417       .  A
C387        C392   1.418       .  A
C387        H397   1.082   1_565  S
C388        C389   1.409       .  A
C388        C393   1.524       .  S
C389        C390   1.407       .  A
C389        H394   1.082       .  S
C390        C391   1.413       .  A
C390        H395   1.083       .  S
C391        C392   1.410       .  A
C392        H396   1.083   1_565  S
C393        C398   1.412   1_565  A
C393        C402   1.415       .  A
C398        C399   1.413       .  A
C398        H403   1.082       .  S
C399        C400   1.411   1_545  A
C399        H404   1.083       .  S
C400        C401   1.408       .  A
C401        C402   1.412       .  A
C401        H405   1.083       .  S
C402        H406   1.082       .  S
C407        C408   1.415       .  A
C407        C412   1.407       .  A
C407        H417   1.081       .  S
C408        C409   1.411       .  A
C408        C413   1.520       .  S
C409        C410   1.411       .  A
C409        H414   1.082       .  S
C410        C411   1.412       .  A
C410        H415   1.083       .  S
C411        C412   1.405       .  A
C412        H416   1.083       .  S
C413        C418   1.408       .  A
C413        C422   1.417       .  A
C418        C419   1.401       .  A
C418        H423   1.081       .  S
C419        C420   1.410       .  A
C419        H424   1.083       .  S
C420        C421   1.410       .  A
C421        C422   1.417       .  A
C421        H425   1.083       .  S
C422        H426   1.082       .  S
C427        C428   1.409       .  A
C427        C432   1.407       .  A
C427        H437   1.082       .  S
C428        C429   1.416       .  A
C428        C433   1.519       .  S
C429        C430   1.413       .  A
C429        H434   1.082       .  S
C430        C431   1.409       .  A
C430        H435   1.083       .  S
C431        C432   1.411       .  A
C432        H436   1.083       .  S
C433        C438   1.416       .  A
C433        C442   1.409       .  A
C438        C439   1.414       .  A
C438        H443   1.082       .  S
C439        C440   1.408       .  A
C439        H444   1.083       .  S
C440        C441   1.413       .  A
C441        C442   1.406       .  A
C441        H445   1.083       .  S
C442        H446   1.082       .  S
C447        C448   1.408   1_655  A
C447        C452   1.402       .  A
C447        H457   1.083       .  S
C448        C449   1.404       .  A
C448        C453   1.485       .  S
C449        C450   1.393       .  A
C449        H454   1.083       .  S
C450        C451   1.405       .  A
C450        H455   1.083       .  S
C451        C452   1.405   1_455  A
C452        H456   1.083       .  S
C453        C458   1.406   1_455  A
C453        C462   1.407       .  A
C458        C459   1.400       .  A
C458        H463   1.083       .  S
C459        C460   1.404   1_655  A
C459        H464   1.083       .  S
C460        C461   1.402       .  A
C461        C462   1.395       .  A
C461        H465   1.083       .  S
C462        H466   1.083       .  S
C467        C468   1.404   1_655  A
C467        C472   1.397       .  A
C467        H477   1.083       .  S
C468        C469   1.405       .  A
C468        C473   1.481       .  S
C469        C470   1.398       .  A
C469        H474   1.083       .  S
C470        C471   1.405   1_455  A
C470        H475   1.083       .  S
C471        C472   1.404       .  A
C472        H476   1.083       .  S
C473        C478   1.405   1_455  A
C473        C482   1.405       .  A
C478        C479   1.398       .  A
C478        H483   1.083       .  S
C479        C480   1.405   1_655  A
C479        H484   1.083       .  S
C480        C481   1.404       .  A
C481        C482   1.396       .  A
C481        H485   1.083       .  S
C482        H486   1.083       .  S
C487        C488   1.405       .  A
C487        C492   1.387       .  A
C487        H497   1.083       .  S
C488        C489   1.406       .  A
C488        C493   1.471       .  S
C489        C490   1.391       .  A
C489        H494   1.082       .  S
C490        C491   1.398       .  A
C490        H495   1.083       .  S
C491        C492   1.398       .  A
C492        H496   1.084       .  S
C493        C498   1.402       .  A
C493        C502   1.406       .  A
C498        C499   1.383       .  A
C498        H503   1.083       .  S
C499        C500   1.403       .  A
C499        H504   1.083       .  S
C500        C501   1.402       .  A
C501        C502   1.395       .  A
C501        H505   1.083       .  S
C502        H506   1.083       .  S
C507        C508   1.410       .  A
C507        C512   1.392       .  A
C507        H517   1.082       .  S
C508        C509   1.407       .  A
C508        C513   1.482       .  S
C509        C510   1.388       .  A
C509        H514   1.081       .  S
C510        C511   1.398       .  A
C510        H515   1.084       .  S
C511        C512   1.397       .  A
C512        H516   1.083       .  S
C513        C518   1.408       .  A
C513        C522   1.409       .  A
C518        C519   1.388       .  A
C518        H523   1.081       .  S
C519        C520   1.397       .  A
C519        H524   1.084       .  S
C520        C521   1.398       .  A
C521        C522   1.392       .  A
C521        H525   1.083       .  S
C522        H526   1.081       .  S
C527        C528   1.408   1_655  A
C527        C532   1.401       .  A
C527        H537   1.082       .  S
C528        C529   1.409       .  A
C528        C533   1.492   1_455  S
C529        C530   1.399       .  A
C529        H534   1.083       .  S
C530        C531   1.401       .  A
C530        H535   1.083       .  S
C531        C532   1.403   1_455  A
C532        H536   1.083       .  S
C533        C538   1.407   1_655  A
C533        C542   1.407       .  A
C538        C539   1.401   1_455  A
C538        H543   1.083       .  S
C539        C540   1.408       .  A
C539        H544   1.083   1_655  S
C540        C541   1.406       .  A
C541        C542   1.399       .  A
C541        H545   1.083       .  S
C542        H546   1.083       .  S
C547        C548   1.408       .  A
C547        C552   1.401       .  A
C547        H557   1.083       .  S
C548        C549   1.406   1_655  A
C548        C553   1.488   1_655  S
C549        C550   1.396       .  A
C549        H554   1.083       .  S
C550        C551   1.403   1_455  A
C550        H555   1.083       .  S
C551        C552   1.403       .  A
C552        H556   1.083       .  S
C553        C558   1.408       .  A
C553        C562   1.404   1_455  A
C558        C559   1.403       .  A
C558        H563   1.083       .  S
C559        C560   1.406       .  A
C559        H564   1.083       .  S
C560        C561   1.408       .  A
C561        C562   1.395   1_455  A
C561        H565   1.083       .  S
C562        H566   1.083       .  S
