geometry optimzed in LAMMPS
_audit_creation_date              2020-12-01 
_audit_creation_method            'lammps2cif' 
_symmetry_space_group_name_H-M    'P1' 
_symmetry_Int_Tables_number       1 
_symmetry_cell_setting            triclinic 
loop_ 
_symmetry_equiv_pos_as_xyz 
  x,y,z 
_cell_length_a                    43.42094528 
_cell_length_b                    43.447744398229744 
_cell_length_c                    27.7033750924608 
_cell_angle_alpha                 89.62432205340843 
_cell_angle_beta                  89.78940896094356 
_cell_angle_gamma                 120.00090093250412 
loop_ 
_atom_site_label 
_atom_site_type_symbol 
_atom_site_fract_x 
_atom_site_fract_y 
_atom_site_fract_z 
_atom_site_charge 
O1          O  0.32182216  0.34903252  0.35521334    -0.71700
O2          O  0.40977363  0.43566346  0.35762456    -0.71900
O3          O  0.35430282  0.40765375  0.29836400    -0.71700
O4          O  0.37837935  0.37774059  0.41473720    -0.71700
O5          O  0.40443799  0.35510163  0.37298453    -0.71700
O6          O  0.37721525  0.38170608  0.25691231    -0.71700
O7          O  0.43400081  0.41174405  0.31441564    -0.71700
O8          O  0.34696436  0.32422945  0.31600125    -0.71800
V9          V  0.36637426  0.39188208  0.35573646     1.35200
V10         V  0.39001194  0.36854000  0.31583487     1.35200
C11         C  0.31946129  0.32175537  0.33557853     0.77600
C12         C  0.43673825  0.43854302  0.33593637     0.77600
C13         C  0.36255647  0.40058255  0.25773187     0.77500
C14         C  0.39679911  0.36254493  0.41374027     0.77500
O15         O  0.16089689  0.18430062  0.31559196    -0.71700
O16         O  0.07376051  0.09688141  0.31213765    -0.71900
O17         O  0.10276697  0.15178827  0.37276470    -0.71700
O18         O  0.13121701  0.12864525  0.25497834    -0.71700
O19         O  0.15503674  0.10282015  0.29471996    -0.71700
O20         O  0.12708999  0.12651990  0.41269170    -0.71700
O21         O  0.09790865  0.07128956  0.35203440    -0.71700
O22         O  0.18510131  0.15867833  0.35507349    -0.71800
V23         V  0.11778637  0.14005684  0.31463891     1.35200
V24         V  0.14095792  0.11548961  0.35294632     1.35200
C25         C  0.18798689  0.18644628  0.33573440     0.77600
C26         C  0.07113007  0.06908726  0.33096534     0.77600
C27         C  0.10913528  0.14221933  0.41292844     0.77500
C28         C  0.14651630  0.11032777  0.25456947     0.77500
O29         O  0.47942326  0.31916820  0.68745519    -0.71700
O30         O  0.47719444  0.40522735  0.68484914    -0.71900
O31         O  0.45174233  0.34849439  0.62845165    -0.71700
O32         O  0.50550155  0.37734081  0.74430390    -0.71700
O33         O  0.05461784  0.40351455  0.70200972    -0.71700
O34         O  0.00121657  0.37266209  0.58642752    -0.71700
O35         O  0.02632622  0.43034594  0.64197172    -0.71700
O36         O  0.02963670  0.34470100  0.64715850    -0.71800
V37         V  0.47946177  0.36283647  0.68555168     1.35200
V38         V  0.02697382  0.38708894  0.64515236     1.35200
C39         C  0.00484698  0.31724558  0.66741201     0.77600
C40         C  0.00150222  0.43241756  0.66279606     0.77600
C41         C  0.46712798  0.35682452  0.58766240     0.77500
C42         C  0.03923796  0.39727717  0.74265390     0.77500
O43         O  0.02964091  0.18052103  0.69077353    -0.71700
O44         O  0.02549542  0.09124030  0.69386721    -0.71900
O45         O  0.05565430  0.14784028  0.63503016    -0.71700
O46         O  0.99928688  0.12313772  0.74969007    -0.71700
O47         O  0.45163064  0.09817888  0.70649181    -0.71700
O48         O  0.50814017  0.12763161  0.59207601    -0.71700
O49         O  0.47928539  0.06921485  0.64804813    -0.71700
O50         O  0.48065363  0.15726426  0.65064253    -0.71800
V51         V  0.02659558  0.13537940  0.69154375     1.35200
V52         V  0.48083873  0.11364085  0.65015680     1.35200
C53         C  0.00560561  0.18416311  0.67051056     0.77600
C54         C  0.00204666  0.06509490  0.67071121     0.77600
C55         C  0.04126730  0.14106877  0.59389304     0.77500
C56         C  0.46586281  0.10522094  0.74771370     0.77500
O57         O  0.33816193  0.02480215  0.01907653    -0.71700
O58         O  0.42390850  0.02201168  0.02512298    -0.71900
O59         O  0.39714860  0.05009802  0.96334255    -0.71700
O60         O  0.36553327  0.99645917  0.08048451    -0.71700
O61         O  0.35058377  0.45437186  0.04135969    -0.71700
O62         O  0.37120836  0.50220596  0.92026861    -0.71700
O63         O  0.40456921  0.47896424  0.97846023    -0.71700
O64         O  0.31664358  0.47776157  0.98327515    -0.71800
V65         V  0.38057718  0.02243804  0.02122811     1.35200
V66         V  0.36110344  0.47929551  0.98157433     1.35200
C67         C  0.31058023  0.99955329  0.00064376     0.77600
C68         C  0.42696112  0.99845168  0.00278431     0.77600
C69         C  0.38930016  0.03471645  0.92286462     0.77500
C70         C  0.36122750  0.47147061  0.08028982     0.77500
O71         O  0.15489682  0.48148604  0.01778036    -0.71700
O72         O  0.06988928  0.48549836  0.01834868    -0.71900
O73         O  0.09763103  0.45651935  0.96074660    -0.71700
O74         O  0.12688152  0.51051683  0.07568693    -0.71700
O75         O  0.14383944  0.05156243  0.03484761    -0.71700
O76         O  0.11671465  0.99362499  0.92340932    -0.71700
O77         O  0.08698412  0.02263417  0.97735976    -0.71700
O78         O  0.17415293  0.02246663  0.98097155    -0.71800
V79         V  0.11293224  0.48450599  0.01733029     1.35200
V80         V  0.13009858  0.02168315  0.98002354     1.35200
C81         C  0.17608114  0.99734494  0.00130625     0.77600
C82         C  0.06050858  0.00041967  0.00202748     0.77600
C83         C  0.10541244  0.47132790  0.91961588     0.77500
C84         C  0.13771111  0.03789926  0.07669917     0.77500
C85         C  0.02650204  0.00050669  0.00141614     0.00000
C86         C  0.00226151  0.47745166  0.00576351    -0.11900
C87         C  0.46915798  0.47542836  0.00547054     0.02200
C88         C  0.46072589  0.99859823  0.00297316    -0.00100
C89         C  0.48287216  0.01171853  0.96227282    -0.11800
C90         C  0.01598470  0.01353270  0.96149817     0.02100
H91         H  0.00365640  0.45387371  0.01493564     0.15100
H92         H  0.47448153  0.02105591  0.93132469     0.15100
C93         C  0.03773141  0.02755011  0.91853856     0.36700
C94         C  0.43836764  0.44226710  0.01998164     0.36600
N95         N  0.05511802  0.03886744  0.88409475    -0.43600
N96         N  0.41374974  0.41572154  0.03177498    -0.43600
C97         C  0.21012242  0.99709701  0.00147616     0.00000
C98         C  0.24202726  0.02961946  0.99618712    -0.11900
C99         C  0.27499605  0.03115938  0.99626887     0.02200
C100        C  0.27650180  0.99953814  0.00071437    -0.00100
C101        C  0.24894142  0.47239202  0.00581121    -0.11800
C102        C  0.21653978  0.47201640  0.00475866     0.02100
H103        H  0.24129492  0.05411198  0.99243010     0.15100
H104        H  0.24898612  0.44764604  0.01105146     0.15100
C105        C  0.18423092  0.43806538  0.00923942     0.36700
C106        C  0.30669460  0.06546971  0.99037607     0.36600
N107        N  0.15836383  0.41083517  0.01274948    -0.43600
N108        N  0.33204451  0.09300651  0.98573721    -0.43600
C109        C  0.44373783  0.09059723  0.79216453     0.00000
C110        C  0.41192662  0.05788426  0.78935848    -0.11900
C111        C  0.39265246  0.04000980  0.83099450     0.02200
C112        C  0.40496344  0.05501141  0.87707249    -0.00100
C113        C  0.43536584  0.08903322  0.87946306    -0.11800
C114        C  0.45476109  0.10675914  0.83773455     0.02100
H115        H  0.40284391  0.04531444  0.75457125     0.15100
H116        H  0.44499878  0.10131812  0.91426518     0.15100
C117        C  0.48579752  0.14150880  0.84279642     0.36700
C118        C  0.36077419  0.00600744  0.82498740     0.36600
N119        N  0.51058282  0.16942562  0.84686869    -0.43600
N120        N  0.33743400  0.47209251  0.81845256    -0.43600
C121        C  0.05951181  0.41473563  0.78699878     0.00000
C122        C  0.04783347  0.39706837  0.83158407    -0.11900
C123        C  0.06351950  0.41412122  0.87497074     0.02200
C124        C  0.09109970  0.45023710  0.87453254    -0.00100
C125        C  0.10353930  0.46743186  0.82962453    -0.11800
C126        C  0.08832266  0.45011801  0.78625026     0.02100
H127        H  0.02593101  0.36987445  0.83260461     0.15100
H128        H  0.12475141  0.49493652  0.82827391     0.15100
C129        C  0.10160287  0.47021600  0.74182108     0.36700
C130        C  0.04979752  0.39389392  0.91918359     0.36600
N131        N  0.11246268  0.48643160  0.70635179    -0.43600
N132        N  0.03882629  0.37753916  0.95452724    -0.43600
C133        C  0.00499925  0.28333405  0.66774650     0.00000
C134        C  0.03623844  0.28324874  0.68001283    -0.11900
C135        C  0.03714562  0.25144348  0.68195748     0.02200
C136        C  0.00640729  0.21884331  0.67015434    -0.00100
C137        C  0.47539233  0.21923554  0.65713968    -0.11800
C138        C  0.47428631  0.25087575  0.65622120     0.02100
H139        H  0.05986562  0.30808837  0.68898554     0.15100
H140        H  0.45167741  0.19467864  0.64757296     0.15100
C141        C  0.44184914  0.24961367  0.64120956     0.36700
C142        C  0.07008719  0.25342425  0.69596800     0.36600
N143        N  0.41591326  0.24866113  0.62907338    -0.43600
N144        N  0.09650369  0.25514827  0.70745776    -0.43600
C145        C  0.00126868  0.46602778  0.66306346     0.00000
C146        C  0.03187301  0.49651469  0.67848852    -0.11900
C147        C  0.03139140  0.02751032  0.68252458     0.02200
C148        C  0.00151629  0.03066253  0.66962723    -0.00100
C149        C  0.47081160  0.00032415  0.65358721    -0.11800
C150        C  0.47108200  0.46815864  0.64901046     0.02100
H151        H  0.05481950  0.49471453  0.68925588     0.15100
H152        H  0.44776328  0.00222569  0.64319461     0.15100
C153        C  0.43927553  0.43767572  0.63141159     0.36700
C154        C  0.06424861  0.05722742  0.69911076     0.36600
N155        N  0.41357971  0.41347486  0.61731928    -0.43600
N156        N  0.09062406  0.08072286  0.71291429    -0.43600
C157        C  0.06236646  0.14695055  0.54886430     0.00000
C158        C  0.04993912  0.15346527  0.50543375    -0.11900
C159        C  0.06592809  0.15423603  0.46097857     0.02200
C160        C  0.09471255  0.14755626  0.45915263    -0.00100
C161        C  0.10816800  0.14278783  0.50290115    -0.11800
C162        C  0.09257659  0.14267252  0.54734768     0.02100
H163        H  0.02703353  0.15719686  0.50608718     0.15100
H164        H  0.13045735  0.13808223  0.50242740     0.15100
C165        C  0.10701920  0.13591616  0.59032873     0.36700
C166        C  0.05103574  0.16047305  0.41801030     0.36600
N167        N  0.11894530  0.13062570  0.62452434    -0.43600
N168        N  0.03905943  0.16563053  0.38373504    -0.43600
C169        C  0.15142613  0.09589898  0.20820392     0.00000
C170        C  0.14275534  0.10683659  0.16493873    -0.11900
C171        C  0.13988961  0.08946539  0.12138570     0.02200
C172        C  0.14568860  0.06024734  0.12026635    -0.00100
C173        C  0.15646646  0.05057571  0.16265959    -0.11800
C174        C  0.15990697  0.06834099  0.20621408     0.02100
H175        H  0.13650629  0.12807932  0.16536719     0.15100
H176        H  0.16155724  0.02854804  0.16196284     0.15100
C177        C  0.17107718  0.05673593  0.24822065     0.36700
C178        C  0.12804379  0.10041199  0.07936956     0.36600
N179        N  0.18024945  0.04744335  0.28168501    -0.43600
N180        N  0.11843667  0.10911932  0.04577348    -0.43600
C181        C  0.41126909  0.35564347  0.45861974     0.00000
C182        C  0.44241669  0.35337482  0.45508346    -0.11900
C183        C  0.46024257  0.35190022  0.49635738     0.02200
C184        C  0.44645446  0.35169795  0.54272625    -0.00100
C185        C  0.41385019  0.35113738  0.54614977    -0.11800
C186        C  0.39664864  0.35385672  0.50494165     0.02100
H187        H  0.45397923  0.35449846  0.41988785     0.15100
H188        H  0.40263379  0.35054787  0.58139027     0.15100
C189        C  0.36461850  0.35569928  0.51165399     0.36700
C190        C  0.49291329  0.35123397  0.48981317     0.36600
N191        N  0.33910761  0.35743508  0.51728765    -0.43600
N192        N  0.51913428  0.35079990  0.48439075    -0.43600
C193        C  0.47093150  0.47214937  0.33625430     0.00000
C194        C  0.50231819  0.47053648  0.33888416    -0.11900
C195        C  0.03651304  0.00214459  0.32451202     0.02200
C196        C  0.03739567  0.03496962  0.32861816    -0.00100
C197        C  0.00528745  0.03534554  0.33019642    -0.11800
C198        C  0.47299736  0.50558736  0.33377516     0.02100
H199        H  0.50087952  0.44489227  0.34074113     0.15100
H200        H  0.00571714  0.06047227  0.33256957     0.13300
C201        C  0.44161991  0.50884354  0.32908548     0.36700
C202        C  0.06859085  0.00015630  0.31944149     0.36600
N203        N  0.41652479  0.51151701  0.32523233    -0.43600
N204        N  0.09420986  0.99843742  0.31517955    -0.43600
C205        C  0.28557665  0.28752833  0.33598475     0.00000
C206        C  0.28664567  0.25594127  0.34134516    -0.11900
C207        C  0.25537384  0.22280501  0.34220592     0.02200
C208        C  0.22201976  0.22079196  0.33661128    -0.00100
C209        C  0.22108064  0.25250175  0.33094194    -0.11800
C210        C  0.25234076  0.28564057  0.33095352     0.02100
H211        H  0.31207952  0.25716652  0.34538831     0.15100
H212        H  0.19576670  0.25147614  0.32663371     0.15100
C213        C  0.24956808  0.31712919  0.32388016     0.36700
C214        C  0.25863223  0.19148077  0.34776875     0.36600
N215        N  0.24731637  0.34233930  0.31815065    -0.43600
N216        N  0.26135283  0.16645086  0.35236710    -0.43600
C217        C  0.35757791  0.41619999  0.21256169     0.00000
C218        C  0.36020871  0.44976199  0.21456972    -0.11900
C219        C  0.36065344  0.46804938  0.17238915     0.02200
C220        C  0.35750554  0.45235146  0.12673935    -0.00100
C221        C  0.35310091  0.41800518  0.12503455    -0.11800
C222        C  0.35352177  0.40012496  0.16709583     0.02100
H223        H  0.36351746  0.46253835  0.24918270     0.15100
H224        H  0.35062044  0.40544049  0.09045707     0.15100
C225        C  0.34992797  0.36539847  0.16230710     0.36700
C226        C  0.36486756  0.50301273  0.17731900     0.36600
N227        N  0.34713878  0.33761721  0.15832356    -0.43600
N228        N  0.36839446  0.53108755  0.18143783    -0.43600
O229        O  0.32468106  0.84601522  0.35399482    -0.71700
O230        O  0.41165926  0.93330266  0.35205347    -0.71900
O231        O  0.35398363  0.90369100  0.29620460    -0.71700
O232        O  0.38251860  0.87563174  0.40998485    -0.71700
O233        O  0.40881533  0.85407359  0.36636456    -0.71700
O234        O  0.37590587  0.87774446  0.25284319    -0.71700
O235        O  0.43511576  0.91005771  0.30608665    -0.71700
O236        O  0.34938715  0.82137263  0.31338498    -0.71800
V237        V  0.36864427  0.88913914  0.35227417     1.35200
V238        V  0.39176119  0.86619881  0.31044786     1.35200
C239        C  0.32226764  0.81875999  0.33435280     0.77600
C240        C  0.43805841  0.93676362  0.32814748     0.77600
C241        C  0.36013218  0.89556130  0.25494190     0.77500
C242        C  0.40114603  0.86073551  0.40761475     0.77500
O243        O  0.16387802  0.68254484  0.31843563    -0.71700
O244        O  0.07584830  0.59621764  0.31728073    -0.71900
O245        O  0.10657558  0.65174535  0.37646500    -0.71700
O246        O  0.13286525  0.62682733  0.25878692    -0.71700
O247        O  0.15579658  0.59999363  0.29827464    -0.71700
O248        O  0.13080303  0.62655687  0.41675300    -0.71700
O249        O  0.09945634  0.57046176  0.35790996    -0.71700
O250        O  0.18788209  0.65642908  0.35728372    -0.71800
V251        V  0.12037267  0.63890966  0.31851302     1.35200
V252        V  0.14315373  0.61395903  0.35682688     1.35200
C253        C  0.19095701  0.68423746  0.33790912     0.77600
C254        C  0.07263552  0.56854682  0.33738495     0.77600
C255        C  0.11335496  0.64280393  0.41675231     0.77500
C256        C  0.14778573  0.60820273  0.25817028     0.77500
O257        O  0.47336105  0.81594223  0.68747098    -0.71700
O258        O  0.47246670  0.90272883  0.68262439    -0.71900
O259        O  0.44947266  0.84660931  0.62481710    -0.71700
O260        O  0.49692685  0.87308859  0.74568872    -0.71700
O261        O  0.04774215  0.89779298  0.70835112    -0.71700
O262        O  0.00047749  0.87231538  0.58797456    -0.71700
O263        O  0.02380939  0.92822471  0.64680325    -0.71700
O264        O  0.02462988  0.84142309  0.65016752    -0.71800
V265        V  0.47404980  0.85992550  0.68451659     1.35200
V266        V  0.02312355  0.88428281  0.64898708     1.35200
C267        C  0.99911188  0.81387668  0.66906788     0.77600
C268        C  0.99800137  0.93018212  0.66452765     0.77600
C269        C  0.46693673  0.85589040  0.58555996     0.77500
C270        C  0.03061018  0.89100650  0.74764096     0.77500
O271        O  0.02726301  0.67963541  0.68974465    -0.71700
O272        O  0.02447545  0.59121392  0.69358566    -0.71900
O273        O  0.05652270  0.64868468  0.63668881    -0.71700
O274        O  0.99524310  0.62165962  0.74627525    -0.71700
O275        O  0.44896241  0.59580098  0.69966413    -0.71700
O276        O  0.51060134  0.62934766  0.59055365    -0.71700
O277        O  0.48045085  0.56952807  0.64349591    -0.71700
O278        O  0.47925133  0.65619623  0.64713041    -0.71800
V279        V  0.02499930  0.63497446  0.69069284     1.35200
V280        V  0.48069913  0.61325996  0.64603536     1.35200
C281        C  0.00332346  0.68293172  0.66863795     0.77600
C282        C  0.00262266  0.56552315  0.66827456     0.77600
C283        C  0.04385697  0.64293022  0.59454313     0.77500
C284        C  0.46143518  0.60311939  0.74182545     0.77500
O285        O  0.34239276  0.52842942  0.02017130    -0.71700
O286        O  0.43037146  0.53031488  0.01370152    -0.71900
O287        O  0.39626944  0.55296190  0.95663147    -0.71700
O288        O  0.37670935  0.50506356  0.07791615    -0.71700
O289        O  0.34435389  0.94772347  0.03952925    -0.71700
O290        O  0.36963693  0.00127496  0.92274867    -0.71700
O291        O  0.40062593  0.97509181  0.97984988    -0.71700
O292        O  0.31266686  0.97397655  0.98263599    -0.71800
V293        V  0.38577784  0.52815164  0.01653305     1.35200
V294        V  0.35712471  0.97544910  0.98195580     1.35200
C295        C  0.31478408  0.50336242  0.00160117     0.77600
C296        C  0.43242401  0.50492413  0.99521002     0.77600
C297        C  0.38804858  0.53576736  0.91760532     0.77500
C298        C  0.35118007  0.96292633  0.08002388     0.77500
O299        O  0.14846325  0.97298471  0.02180696    -0.71700
O300        O  0.06371579  0.97788821  0.02736594    -0.71900
O301        O  0.08848549  0.94655259  0.96878704    -0.71700
O302        O  0.12302181  0.00442825  0.08044872    -0.71700
O303        O  0.15138129  0.55935222  0.03339685    -0.71700
O304        O  0.12465304  0.50489585  0.91795107    -0.71700
O305        O  0.09521954  0.53338248  0.97419450    -0.71700
O306        O  0.18140549  0.53094294  0.97699104    -0.71800
V307        V  0.10651695  0.97632615  0.02377425     1.35200
V308        V  0.13781516  0.53125828  0.97643430     1.35200
C309        C  0.18272804  0.50549900  0.99741944     0.77600
C310        C  0.06775191  0.50972884  0.99577880     0.77600
C311        C  0.09618842  0.96038620  0.92698468     0.77500
C312        C  0.14320345  0.54411756  0.07434905     0.77500
C313        C  0.03350117  0.50944406  0.99432415     0.00000
C314        C  0.00365399  0.98658861  0.04165187    -0.11900
C315        C  0.47144394  0.98651754  0.04325906     0.02200
C316        C  0.46664449  0.50566509  0.99368276    -0.00100
C317        C  0.49755861  0.53761436  0.98167472    -0.11800
C318        C  0.03092974  0.53979416  0.98226269     0.02100
H319        H  0.01140347  0.97663095  0.07256229     0.15100
H320        H  0.49564679  0.56091995  0.97250694     0.15100
C321        C  0.06171018  0.57362548  0.97012345     0.36700
C322        C  0.44941241  0.97299794  0.08602717     0.36600
N323        N  0.08619540  0.60081681  0.96017247    -0.43600
N324        N  0.43204737  0.96224187  0.12055845    -0.43600
C325        C  0.21616623  0.50416614  0.99797047     0.00000
C326        C  0.24860698  0.53595950  0.99160355    -0.11900
C327        C  0.28096976  0.53629692  0.99280944     0.02200
C328        C  0.28128412  0.50428489  0.00051102    -0.00100
C329        C  0.24467529  0.96698752  0.00562026    -0.11800
C330        C  0.21170729  0.96549924  0.00664477     0.02100
H331        H  0.24876775  0.56075586  0.98582895     0.15100
H332        H  0.24557561  0.94257970  0.00938165     0.15100
C333        C  0.18011374  0.93108593  0.01220331     0.36700
C334        C  0.31329338  0.56959549  0.98374154     0.36600
N335        N  0.15488172  0.90346170  0.01687168    -0.43600
N336        N  0.33918397  0.59621025  0.97621334    -0.43600
C337        C  0.43790335  0.58886258  0.78466611     0.00000
C338        C  0.40872939  0.55417347  0.78329638    -0.11900
C339        C  0.39005248  0.53693929  0.82558286     0.02200
C340        C  0.40066813  0.55463499  0.87041545    -0.00100
C341        C  0.42738936  0.59065375  0.87054269    -0.11800
C342        C  0.44596927  0.60776677  0.82828458     0.02100
H343        H  0.40174123  0.53973342  0.74958960     0.15100
H344        H  0.43520234  0.60513258  0.90417949     0.15100
C345        C  0.47337291  0.64467678  0.83068859     0.36700
C346        C  0.36085939  0.50092000  0.82173976     0.36600
N347        N  0.49520845  0.67430824  0.83243691    -0.43600
N348        N  0.33528507  0.97874451  0.81997130    -0.43600
C349        C  0.04927593  0.90565292  0.79427751     0.00000
C350        C  0.02950238  0.89489017  0.83761749    -0.11900
C351        C  0.04461855  0.91119558  0.88161224     0.02200
C352        C  0.08043710  0.93890150  0.88305247    -0.00100
C353        C  0.10059328  0.94882609  0.84028504    -0.11800
C354        C  0.08561976  0.93256896  0.79631228     0.02100
H355        H  0.00165945  0.87450224  0.83699875     0.15100
H356        H  0.12808641  0.97012176  0.84100138     0.15100
C357        C  0.10809772  0.94557709  0.75386408     0.36700
C358        C  0.02188600  0.90089005  0.92384705     0.36600
N359        N  0.12624151  0.95617380  0.71998647    -0.43600
N360        N  0.00358688  0.89275743  0.95759137    -0.43600
C361        C  0.99946223  0.78016791  0.66987758     0.00000
C362        C  0.03067141  0.78059633  0.68365379    -0.11900
C363        C  0.03249836  0.74934532  0.68458840     0.02200
C364        C  0.00283601  0.71686058  0.66988769    -0.00100
C365        C  0.47140945  0.71654968  0.65667552    -0.11800
C366        C  0.46938208  0.74768700  0.65704023     0.02100
H367        H  0.05361267  0.80545249  0.69438940     0.15100
H368        H  0.44832694  0.69195912  0.64558931     0.15100
C369        C  0.43681055  0.74596123  0.64164214     0.36700
C370        C  0.06524747  0.75180273  0.70069527     0.36600
N371        N  0.41071555  0.74457789  0.62929962    -0.43600
N372        N  0.09145460  0.75387133  0.71397899    -0.43600
C373        C  0.99851305  0.96427530  0.66495276     0.00000
C374        C  0.02970233  0.99461178  0.67942410    -0.11900
C375        C  0.03278004  0.52901103  0.68165386     0.02200
C376        C  0.00282011  0.53156451  0.66748792    -0.00100
C377        C  0.47226300  0.50088534  0.65078955    -0.11800
C378        C  0.46899227  0.96726942  0.65137598     0.02100
H379        H  0.05267817  0.99241331  0.68941994     0.15100
H380        H  0.44925333  0.50244304  0.63930039     0.15100
C381        C  0.43676146  0.93702485  0.63413511     0.36700
C382        C  0.06487090  0.55888939  0.69980553     0.36600
N383        N  0.41100472  0.91279203  0.62018526    -0.43600
N384        N  0.09058431  0.58248102  0.71499830    -0.43600
C385        C  0.06657446  0.64988743  0.55103906     0.00000
C386        C  0.05529613  0.65708801  0.50720021    -0.11900
C387        C  0.07161169  0.65737440  0.46339910     0.02200
C388        C  0.09955354  0.64940111  0.46260271    -0.00100
C389        C  0.11242083  0.64462492  0.50688224    -0.11800
C390        C  0.09656693  0.64522033  0.55084225     0.02100
H391        H  0.03276387  0.66142981  0.50696146     0.15100
H392        H  0.13429376  0.63928466  0.50718420     0.15100
C393        C  0.11052486  0.63895462  0.59467806     0.36700
C394        C  0.05764903  0.66427083  0.41999551     0.36600
N395        N  0.12215961  0.63421975  0.62959946    -0.43600
N396        N  0.04641097  0.66994822  0.38537657    -0.43600
C397        C  0.15359643  0.59506869  0.21131760     0.00000
C398        C  0.15189216  0.61159436  0.16834585    -0.11900
C399        C  0.15084704  0.59686605  0.12307000     0.02200
C400        C  0.15095093  0.56445457  0.12001011    -0.00100
C401        C  0.15505276  0.54919703  0.16264181    -0.11800
C402        C  0.15682746  0.56430627  0.20787763     0.02100
H403        H  0.15006460  0.63556415  0.17011010     0.15100
H404        H  0.15590139  0.52469887  0.16076605     0.15100
C405        C  0.16030268  0.54652553  0.24994209     0.36700
C406        C  0.14729495  0.61449754  0.08087893     0.36600
N407        N  0.16336749  0.53224222  0.28342546    -0.43600
N408        N  0.14455322  0.62885600  0.04724221    -0.43600
C409        C  0.41520489  0.85309399  0.45197675     0.00000
C410        C  0.44957084  0.85767812  0.45090096    -0.11900
C411        C  0.46633386  0.85649302  0.49346606     0.02200
C412        C  0.44850226  0.85048361  0.53847621    -0.00100
C413        C  0.41291747  0.84274314  0.53872093    -0.11800
C414        C  0.39627130  0.84402164  0.49614182     0.02100
H415        H  0.46410333  0.86392934  0.41695863     0.15100
H416        H  0.39840155  0.83719654  0.57257711     0.15100
C417        C  0.35969433  0.83577011  0.49875633     0.36700
C418        C  0.50202196  0.86225835  0.48959481     0.36600
N419        N  0.33031656  0.82895010  0.50075605    -0.43600
N420        N  0.53060738  0.86686545  0.48626473    -0.43600
C421        C  0.47181346  0.97099846  0.32675217     0.00000
C422        C  0.50389613  0.97066502  0.32312709    -0.11900
C423        C  0.03594268  0.50133825  0.33983510     0.02200
C424        C  0.03820626  0.53492567  0.33702746    -0.00100
C425        C  0.00676171  0.53651334  0.33334194    -0.11800
C426        C  0.47276491  0.00392261  0.32959503     0.02100
H427        H  0.50344335  0.94555213  0.32025340     0.15100
H428        H  0.00812567  0.56210046  0.33101115     0.13300
C429        C  0.44068819  0.00618583  0.33025000     0.36700
C430        C  0.06708469  0.49754250  0.34252084     0.36600
N431        N  0.41499812  0.00801786  0.33059682    -0.43600
N432        N  0.09187086  0.49422192  0.34483215    -0.43600
C433        C  0.28857502  0.78460954  0.33592938     0.00000
C434        C  0.28971209  0.75301249  0.34038727    -0.11900
C435        C  0.25839133  0.71996636  0.34197773     0.02200
C436        C  0.22507178  0.71823216  0.33818035    -0.00100
C437        C  0.22409909  0.74994980  0.33364680    -0.11800
C438        C  0.25534379  0.78292304  0.33274127     0.02100
H439        H  0.31519304  0.75416310  0.34299158     0.15100
H440        H  0.19875318  0.74905480  0.33080121     0.15100
C441        C  0.25246748  0.81442477  0.32646029     0.36700
C442        C  0.26150364  0.68847956  0.34616904     0.36600
N443        N  0.25011698  0.83962718  0.32134024    -0.43600
N444        N  0.26414346  0.66333525  0.34960941    -0.43600
C445        C  0.35098442  0.90844268  0.21029304     0.00000
C446        C  0.34634244  0.93821219  0.21305112    -0.11900
C447        C  0.34367287  0.95506410  0.17119795     0.02200
C448        C  0.34564437  0.94216172  0.12529452    -0.00100
C449        C  0.34668874  0.91039542  0.12272929    -0.11800
C450        C  0.34947974  0.89360500  0.16445922     0.02100
H451        H  0.34637971  0.94941383  0.24793346     0.15100
H452        H  0.34749081  0.89966829  0.08780358     0.15100
C453        C  0.35143884  0.86160829  0.15876996     0.36700
C454        C  0.33897964  0.98551016  0.17647707     0.36600
N455        N  0.35298320  0.83596508  0.15404908    -0.43600
N456        N  0.33495555  0.00975241  0.18074900    -0.43600
O457        O  0.82221348  0.34903853  0.35499074    -0.71700
O458        O  0.91020706  0.43564022  0.35723177    -0.71900
O459        O  0.85461792  0.40765651  0.29813176    -0.71700
O460        O  0.87884626  0.37771686  0.41434988    -0.71700
O461        O  0.90480553  0.35501861  0.37249727    -0.71700
O462        O  0.87748793  0.38173580  0.25654747    -0.71700
O463        O  0.93435553  0.41167509  0.31395057    -0.71700
O464        O  0.84726310  0.32421808  0.31560333    -0.71800
V465        V  0.86677919  0.39187500  0.35542343     1.35200
V466        V  0.89033629  0.36850792  0.31540249     1.35200
C467        C  0.81980284  0.32175586  0.33530331     0.77600
C468        C  0.93714470  0.43847992  0.33550863     0.77600
C469        C  0.86280063  0.40059091  0.25744667     0.77500
C470        C  0.89722077  0.36247592  0.41328479     0.77500
O471        O  0.66118741  0.18439747  0.31572428    -0.71700
O472        O  0.57399700  0.09705396  0.31219159    -0.71900
O473        O  0.60307590  0.15189912  0.37291669    -0.71700
O474        O  0.63146058  0.12881953  0.25503430    -0.71700
O475        O  0.65527994  0.10294897  0.29466864    -0.71700
O476        O  0.62730449  0.12649910  0.41275141    -0.71700
O477        O  0.59810473  0.07134963  0.35192067    -0.71700
O478        O  0.68534838  0.15871381  0.35516337    -0.71800
V479        V  0.61805348  0.14019011  0.31473867     1.35200
V480        V  0.64118184  0.11553893  0.35294883     1.35200
C481        C  0.68826554  0.18650230  0.33584168     0.77600
C482        C  0.57133442  0.06921526  0.33090594     0.77600
C483        C  0.60941127  0.14226377  0.41305191     0.77500
C484        C  0.64678321  0.11052479  0.25454885     0.77500
O485        O  0.97969262  0.31933746  0.68716186    -0.71700
O486        O  0.97755659  0.40542074  0.68470498    -0.71900
O487        O  0.95215370  0.34877620  0.62813766    -0.71700
O488        O  0.00574015  0.37740566  0.74416426    -0.71700
O489        O  0.55431862  0.40342357  0.70202677    -0.71700
O490        O  0.50074568  0.37234982  0.58660664    -0.71700
O491        O  0.52590796  0.43011595  0.64198819    -0.71700
O492        O  0.52931888  0.34453493  0.64733661    -0.71800
V493        V  0.97978447  0.36301845  0.68533012     1.35200
V494        V  0.52659493  0.38688515  0.64524965     1.35200
C495        C  0.50458512  0.31709375  0.66768535     0.77600
C496        C  0.50111691  0.43220439  0.66287552     0.77600
C497        C  0.96759835  0.35713193  0.58738490     0.77500
C498        C  0.53899268  0.39725335  0.74270442     0.77500
O499        O  0.52980331  0.18057148  0.69092367    -0.71700
O500        O  0.52573196  0.09129344  0.69386833    -0.71900
O501        O  0.55591168  0.14795575  0.63515803    -0.71700
O502        O  0.49945659  0.12313535  0.74974914    -0.71700
O503        O  0.95143083  0.09818850  0.70648940    -0.71700
O504        O  0.00784872  0.12747265  0.59201428    -0.71700
O505        O  0.97899767  0.06910526  0.64813678    -0.71700
O506        O  0.98047346  0.15722926  0.65052801    -0.71800
V507        V  0.52680444  0.13543546  0.69163002     1.35200
V508        V  0.98059848  0.11356750  0.65013022     1.35200
C509        C  0.50574093  0.18419256  0.67068961     0.77600
C510        C  0.50232664  0.06518333  0.67060006     0.77600
C511        C  0.54155650  0.14120827  0.59400173     0.77500
C512        C  0.96569117  0.10522975  0.74768887     0.77500
O513        O  0.83821881  0.02487977  0.01924789    -0.71700
O514        O  0.92402654  0.02216520  0.02492286    -0.71900
O515        O  0.89707191  0.05012629  0.96329185    -0.71700
O516        O  0.86579533  0.99666345  0.08055789    -0.71700
O517        O  0.85044622  0.45441265  0.04120022    -0.71700
O518        O  0.87153913  0.50244055  0.92022594    -0.71700
O519        O  0.90464963  0.47905763  0.97866564    -0.71700
O520        O  0.81674966  0.47796028  0.98287574    -0.71800
V521        V  0.88066095  0.02254605  0.02123191     1.35200
V522        V  0.86119543  0.47943825  0.98148039     1.35200
C523        C  0.81064049  0.99967681  0.00073345     0.77600
C524        C  0.92698868  0.99848916  0.00275693     0.77600
C525        C  0.88925252  0.03469153  0.92285814     0.77500
C526        C  0.86093057  0.47143525  0.08020710     0.77500
O527        O  0.65513012  0.48202059  0.01752520    -0.71700
O528        O  0.57002220  0.48584037  0.01794595    -0.71900
O529        O  0.59786360  0.45691699  0.96049961    -0.71700
O530        O  0.62696949  0.51099073  0.07534070    -0.71700
O531        O  0.64408149  0.05194324  0.03475382    -0.71700
O532        O  0.61679288  0.99410173  0.92325277    -0.71700
O533        O  0.58713104  0.02305949  0.97741278    -0.71700
O534        O  0.67431655  0.02285700  0.98069282    -0.71800
V535        V  0.61311380  0.48494857  0.01701987     1.35200
V536        V  0.63025923  0.02210375  0.97990374     1.35200
C537        C  0.67623125  0.99768981  0.00091957     0.77600
C538        C  0.56069076  0.00082967  0.00213344     0.77600
C539        C  0.60553880  0.47168099  0.91934467     0.77500
C540        C  0.63802166  0.03825941  0.07658487     0.77500
C541        C  0.52664790  0.00083055  0.00155374     0.00000
C542        C  0.50236676  0.47767173  0.00555588    -0.11900
C543        C  0.96908239  0.47528208  0.00569133     0.02200
C544        C  0.96071907  0.99857251  0.00291918    -0.00100
C545        C  0.98312239  0.01218963  0.96252761    -0.11800
C546        C  0.51580316  0.01321036  0.96128358     0.02100
H547        H  0.50384194  0.45419571  0.01510561     0.15100
H548        H  0.97497681  0.02201027  0.93184679     0.15100
C549        C  0.53727079  0.02665278  0.91799928     0.36700
C550        C  0.93820995  0.44203615  0.01971945     0.36600
N551        N  0.55443509  0.03750008  0.88329309    -0.43600
N552        N  0.91353092  0.41541520  0.03112403    -0.43600
C553        C  0.71025046  0.99739230  0.00105975     0.00000
C554        C  0.74219855  0.02990588  0.99607512    -0.11900
C555        C  0.77514582  0.03139188  0.99634639     0.02200
C556        C  0.77658793  0.99972725  0.00067248    -0.00100
C557        C  0.74903734  0.47273750  0.00535729    -0.11800
C558        C  0.71667003  0.47243767  0.00438078     0.02100
H559        H  0.74151499  0.05443106  0.99244789     0.15100
H560        H  0.74903989  0.44798742  0.01080131     0.15100
C561        C  0.68433551  0.43853280  0.00911760     0.36700
C562        C  0.80689478  0.06569949  0.99078586     0.36600
N563        N  0.65844579  0.41133947  0.01281958    -0.43600
N564        N  0.83228763  0.09323263  0.98641446    -0.43600
C565        C  0.94359279  0.09058849  0.79214547     0.00000
C566        C  0.91180624  0.05784933  0.78934699    -0.11900
C567        C  0.89256976  0.03994796  0.83099051     0.02200
C568        C  0.90488052  0.05496598  0.87705545    -0.00100
C569        C  0.93525922  0.08900492  0.87943960    -0.11800
C570        C  0.95463448  0.10674186  0.83771244     0.02100
H571        H  0.90272439  0.04527645  0.75456123     0.15100
H572        H  0.94490027  0.10129123  0.91423915     0.15100
C573        C  0.98568832  0.14147848  0.84278068     0.36700
C574        C  0.86074281  0.00589972  0.82500923     0.36600
N575        N  0.01049514  0.16937895  0.84686338    -0.43600
N576        N  0.83731338  0.47275487  0.81840761    -0.43600
C577        C  0.55931008  0.41480936  0.78699205     0.00000
C578        C  0.54741507  0.39738517  0.83169499    -0.11900
C579        C  0.56311485  0.41455032  0.87500632     0.02200
C580        C  0.59106093  0.45050771  0.87436354    -0.00100
C581        C  0.60367389  0.46747670  0.82936264    -0.11800
C582        C  0.58834118  0.45008024  0.78606757     0.02100
H583        H  0.52528106  0.37031463  0.83287408     0.15100
H584        H  0.62509809  0.49488270  0.82787898     0.15100
C585        C  0.60168615  0.47002411  0.74153552     0.36700
C586        C  0.54890881  0.39466080  0.91936253     0.36600
N587        N  0.61254760  0.48611837  0.70597607    -0.43600
N588        N  0.53751336  0.37859065  0.95482622    -0.43600
C589        C  0.50482275  0.28322351  0.66808365     0.00000
C590        C  0.53602630  0.28318736  0.68072433    -0.11900
C591        C  0.53702994  0.25142877  0.68264211     0.02200
C592        C  0.50643672  0.21882999  0.67042657    -0.00100
C593        C  0.97533075  0.21929270  0.65721324    -0.11800
C594        C  0.97432545  0.25098326  0.65626845     0.02100
H595        H  0.55954831  0.30802904  0.68999311     0.15100
H596        H  0.95151159  0.19472989  0.64796423     0.15100
C597        C  0.94182739  0.24975409  0.64165340     0.36700
C598        C  0.56991470  0.25345596  0.69707073     0.36600
N599        N  0.91584176  0.24883009  0.62984366    -0.43600
N600        N  0.59628456  0.25521768  0.70889707    -0.43600
C601        C  0.50094495  0.46583522  0.66321365     0.00000
C602        C  0.53128498  0.49611859  0.67969624    -0.11900
C603        C  0.53158960  0.02751236  0.68250898     0.02200
C604        C  0.50181779  0.03076005  0.66932075    -0.00100
C605        C  0.97038853  0.00012015  0.65445306    -0.11800
C606        C  0.97110131  0.46813604  0.64985833     0.02100
H607        H  0.55400920  0.49413809  0.69122173     0.15100
H608        H  0.94724853  0.00194915  0.64435133     0.15100
C609        C  0.93899639  0.43740899  0.63342554     0.36700
C610        C  0.56434231  0.05712794  0.69955426     0.36600
N611        N  0.91310419  0.41295344  0.62030443    -0.43600
N612        N  0.59063729  0.08054601  0.71369780    -0.43600
C613        C  0.56268698  0.14707432  0.54900759     0.00000
C614        C  0.55039606  0.15377509  0.50559325    -0.11900
C615        C  0.56639288  0.15453385  0.46114986     0.02200
C616        C  0.59501939  0.14761257  0.45930619    -0.00100
C617        C  0.60834731  0.14265326  0.50305080    -0.11800
C618        C  0.59277098  0.14258503  0.54749604     0.02100
H619        H  0.52759729  0.15768003  0.50625154     0.15100
H620        H  0.63052502  0.13777532  0.50257409     0.15100
C621        C  0.60708965  0.13567085  0.59048205     0.36700
C622        C  0.55168888  0.16105392  0.41820828     0.36600
N623        N  0.61891212  0.13025800  0.62468963    -0.43600
N624        N  0.53987308  0.16644984  0.38395466    -0.43600
C625        C  0.65174245  0.09619923  0.20812169     0.00000
C626        C  0.64279781  0.10698168  0.16494786    -0.11900
C627        C  0.63993576  0.08963575  0.12138110     0.02200
C628        C  0.64601473  0.06059999  0.12015191    -0.00100
C629        C  0.65709578  0.05111384  0.16242557    -0.11800
C630        C  0.66054893  0.06887377  0.20599388     0.02100
H631        H  0.63631703  0.12806213  0.16546771     0.15100
H632        H  0.66242343  0.02924401  0.16162335     0.15100
C633        C  0.67211352  0.05753347  0.24786606     0.36700
C634        C  0.62779415  0.10039126  0.07947966     0.36600
N635        N  0.68160839  0.04846521  0.28122442    -0.43600
N636        N  0.61795150  0.10894157  0.04597354    -0.43600
C637        C  0.91171053  0.35558639  0.45815184     0.00000
C638        C  0.94303223  0.35363430  0.45469726    -0.11900
C639        C  0.96087651  0.35227693  0.49603039     0.02200
C640        C  0.94697979  0.35196674  0.54237208    -0.00100
C641        C  0.91423689  0.35113162  0.54570144    -0.11800
C642        C  0.89693740  0.35358114  0.50442588     0.02100
H643        H  0.95469166  0.35490158  0.41952738     0.15100
H644        H  0.90294018  0.35047899  0.58090704     0.15100
C645        C  0.86455785  0.35479220  0.51099196     0.36700
C646        C  0.99366756  0.35183048  0.48957073     0.36600
N647        N  0.83872948  0.35596361  0.51648867    -0.43600
N648        N  0.01997790  0.35156009  0.48421476    -0.43600
C649        C  0.97136683  0.47204726  0.33583928     0.00000
C650        C  0.00271391  0.47038632  0.33884531    -0.11900
C651        C  0.53662495  0.00229711  0.32406053     0.02200
C652        C  0.53756680  0.03512931  0.32849095    -0.00100
C653        C  0.50548632  0.03555082  0.33031107    -0.11800
C654        C  0.97349007  0.50549658  0.33302208     0.02100
H655        H  0.00122224  0.44472505  0.34096217     0.15100
H656        H  0.50596342  0.06068990  0.33292392     0.13300
C657        C  0.94215269  0.50877724  0.32791900     0.36700
C658        C  0.56867385  0.00028810  0.31868400     0.36600
N659        N  0.91708583  0.51146202  0.32372697    -0.43600
N660        N  0.59427649  0.99856905  0.31416263    -0.43600
C661        C  0.78590963  0.28753675  0.33580004     0.00000
C662        C  0.78695945  0.25593766  0.34115682    -0.11900
C663        C  0.75566940  0.22281344  0.34213348     0.02200
C664        C  0.72231943  0.22082848  0.33667047    -0.00100
C665        C  0.72140226  0.25254993  0.33100273    -0.11800
C666        C  0.75267864  0.28567332  0.33088623     0.02100
H667        H  0.81239133  0.25714478  0.34510398     0.15100
H668        H  0.69609211  0.25154547  0.32677782     0.15100
C669        C  0.74992531  0.31717063  0.32378660     0.36700
C670        C  0.75889939  0.19147039  0.34765697     0.36600
N671        N  0.74769082  0.34238812  0.31803037    -0.43600
N672        N  0.76159547  0.16642382  0.35221865    -0.43600
C673        C  0.85763978  0.41614000  0.21229946     0.00000
C674        C  0.85960087  0.44940937  0.21443178    -0.11900
C675        C  0.85981965  0.46765208  0.17230486     0.02200
C676        C  0.85717709  0.45222454  0.12658717    -0.00100
C677        C  0.85336741  0.41812562  0.12474500    -0.11800
C678        C  0.85396940  0.40028067  0.16674203     0.02100
H679        H  0.86253283  0.46200503  0.24910359     0.15100
H680        H  0.85124231  0.40575689  0.09010560     0.15100
C681        C  0.85097816  0.36582228  0.16176781     0.36700
C682        C  0.86320146  0.50226460  0.17733677     0.36600
N683        N  0.84866982  0.33825681  0.15762774    -0.43600
N684        N  0.86602812  0.53004814  0.18152887    -0.43600
O685        O  0.82454765  0.84585301  0.35388242    -0.71700
O686        O  0.91157897  0.93306700  0.35229467    -0.71900
O687        O  0.85401310  0.90362370  0.29630890    -0.71700
O688        O  0.88230349  0.87531976  0.41005473    -0.71700
O689        O  0.90863243  0.85379182  0.36644162    -0.71700
O690        O  0.87591987  0.87768503  0.25288779    -0.71700
O691        O  0.93505416  0.90985450  0.30629484    -0.71700
O692        O  0.84925639  0.82121475  0.31326831    -0.71800
V693        V  0.86854265  0.88893844  0.35235176     1.35200
V694        V  0.89167075  0.86601704  0.31050562     1.35200
C695        C  0.82211231  0.81862085  0.33413812     0.77600
C696        C  0.93798287  0.93654030  0.32839379     0.77600
C697        C  0.86020668  0.89555996  0.25503367     0.77500
C698        C  0.90094175  0.86043750  0.40769247     0.77500
O699        O  0.66340755  0.68268393  0.31840301    -0.71700
O700        O  0.57528876  0.59641599  0.31772747    -0.71900
O701        O  0.60632703  0.65194224  0.37690492    -0.71700
O702        O  0.63207794  0.62695006  0.25878362    -0.71700
O703        O  0.65520841  0.60018206  0.29796260    -0.71700
O704        O  0.63056589  0.62660557  0.41681505    -0.71700
O705        O  0.59904032  0.57059253  0.35787998    -0.71700
O706        O  0.68746560  0.65652866  0.35702515    -0.71800
V707        V  0.61985523  0.63907633  0.31872158     1.35200
V708        V  0.64273400  0.61407848  0.35669681     1.35200
C709        C  0.69053437  0.68433638  0.33766282     0.77600
C710        C  0.57214702  0.56871324  0.33763389     0.77600
C711        C  0.61318401  0.64291777  0.41708568     0.77500
C712        C  0.64704454  0.60836619  0.25795606     0.77500
O713        O  0.97346673  0.81591689  0.68722015    -0.71700
O714        O  0.97237244  0.90260943  0.68315761    -0.71900
O715        O  0.94945787  0.84668934  0.62496933    -0.71700
O716        O  0.99696582  0.87282714  0.74582893    -0.71700
O717        O  0.54771927  0.89779527  0.70825502    -0.71700
O718        O  0.50050436  0.87207545  0.58785531    -0.71700
O719        O  0.52394769  0.92815974  0.64638481    -0.71700
O720        O  0.52451588  0.84123572  0.65040107    -0.71800
V721        V  0.97405998  0.85985440  0.68466127     1.35200
V722        V  0.52312847  0.88415655  0.64888347     1.35200
C723        C  0.49897434  0.81378130  0.66944514     0.77600
C724        C  0.49816779  0.93023116  0.66396997     0.77600
C725        C  0.96690791  0.85605119  0.58570278     0.77500
C726        C  0.53057114  0.89124228  0.74750141     0.77500
O727        O  0.52710111  0.67949268  0.69023329    -0.71700
O728        O  0.52410754  0.59097380  0.69417473    -0.71900
O729        O  0.55642089  0.64846646  0.63736156    -0.71700
O730        O  0.49480627  0.62147541  0.74662495    -0.71700
O731        O  0.94924276  0.59602126  0.69958589    -0.71700
O732        O  0.01056475  0.62926057  0.59009845    -0.71700
O733        O  0.98053365  0.56957260  0.64335335    -0.71700
O734        O  0.97938792  0.65627465  0.64669091    -0.71800
V735        V  0.52474177  0.63478486  0.69121536     1.35200
V736        V  0.98081673  0.61332676  0.64575483     1.35200
C737        C  0.50316331  0.68281682  0.66916758     0.77600
C738        C  0.50238768  0.56537265  0.66862696     0.77600
C739        C  0.54386150  0.64286889  0.59515291     0.77500
C740        C  0.96185483  0.60333558  0.74168200     0.77500
O741        O  0.84244492  0.52863119  0.01976944    -0.71700
O742        O  0.93035002  0.53029006  0.01421190    -0.71900
O743        O  0.89663546  0.55314676  0.95671913    -0.71700
O744        O  0.87637628  0.50503410  0.07795242    -0.71700
O745        O  0.84434402  0.94784687  0.03974977    -0.71700
O746        O  0.86966326  0.00123881  0.92281085    -0.71700
O747        O  0.90057965  0.97503923  0.98004200    -0.71700
O748        O  0.81271063  0.97409789  0.98270239    -0.71800
V749        V  0.88579151  0.52823629  0.01658878     1.35200
V750        V  0.85713031  0.97549200  0.98209114     1.35200
C751        C  0.81487727  0.50359186  0.00107415     0.77600
C752        C  0.93244913  0.50493403  0.99568376     0.77600
C753        C  0.88848911  0.53600388  0.91764699     0.77500
C754        C  0.85134755  0.96312288  0.08020073     0.77500
O755        O  0.64861626  0.97332036  0.02140627    -0.71700
O756        O  0.56394277  0.97831461  0.02743549    -0.71900
O757        O  0.58855847  0.94699626  0.96856284    -0.71700
O758        O  0.62334705  0.00478622  0.08030088    -0.71700
O759        O  0.65141133  0.55981233  0.03301751    -0.71700
O760        O  0.62478530  0.50524992  0.91759816    -0.71700
O761        O  0.59529424  0.53369731  0.97373991    -0.71700
O762        O  0.68157446  0.53143402  0.97664131    -0.71800
V763        V  0.60671244  0.97671740  0.02359857     1.35200
V764        V  0.63793243  0.53167125  0.97605849     1.35200
C765        C  0.68293029  0.50600360  0.99706301     0.77600
C766        C  0.56783234  0.51000886  0.99528736     0.77600
C767        C  0.59622456  0.96086927  0.92677627     0.77500
C768        C  0.64316901  0.54458569  0.07398241     0.77500
C769        C  0.53353452  0.50961818  0.99369962     0.00000
C770        C  0.50405319  0.98737714  0.04209691    -0.11900
C771        C  0.97111778  0.98586964  0.04285956     0.02200
C772        C  0.96666813  0.50564197  0.99434357    -0.00100
C773        C  0.99767099  0.53765733  0.98283900    -0.11800
C774        C  0.53084589  0.53982142  0.98110211     0.02100
H775        H  0.51205190  0.97787866  0.07324788     0.15100
H776        H  0.99585148  0.56106732  0.97403273     0.15100
C777        C  0.56152913  0.57357567  0.96838900     0.36700
C778        C  0.94888656  0.97194579  0.08538550     0.36600
N779        N  0.58593713  0.60069889  0.95797024    -0.43600
N780        N  0.93140072  0.96088118  0.11976499    -0.43600
C781        C  0.71634754  0.50460482  0.99743082     0.00000
C782        C  0.74880859  0.53631846  0.99065783    -0.11900
C783        C  0.78113837  0.53657064  0.99174055     0.02200
C784        C  0.78140205  0.50456500  0.99977460    -0.00100
C785        C  0.74471322  0.96718469  0.00522178    -0.11800
C786        C  0.71176649  0.96574579  0.00605035     0.02100
H787        H  0.74901337  0.56111601  0.98466651     0.15100
H788        H  0.74555384  0.94273803  0.00885083     0.15100
C789        C  0.68012085  0.93133078  0.01122238     0.36700
C790        C  0.81347818  0.56975481  0.98219933     0.36600
N791        N  0.65484530  0.90370472  0.01557545    -0.43600
N792        N  0.83938197  0.59626952  0.97426893    -0.43600
C793        C  0.93846454  0.58911344  0.78468278     0.00000
C794        C  0.90907498  0.55454996  0.78330054    -0.11900
C795        C  0.89042212  0.53733264  0.82561425     0.02200
C796        C  0.90127121  0.55490948  0.87050172    -0.00100
C797        C  0.92828755  0.59080771  0.87070587    -0.11800
C798        C  0.94684329  0.60790867  0.82842270     0.02100
H799        H  0.90185916  0.54018701  0.74953235     0.15100
H800        H  0.93631482  0.60519113  0.90440445     0.15100
C801        C  0.97453179  0.64470089  0.83093311     0.36700
C802        C  0.86095836  0.50146145  0.82172744     0.36600
N803        N  0.99660066  0.67423843  0.83277236    -0.43600
N804        N  0.83529878  0.97859709  0.82001349    -0.43600
C805        C  0.54923342  0.90611553  0.79406348     0.00000
C806        C  0.52958933  0.89513698  0.83749517    -0.11900
C807        C  0.54471272  0.91150393  0.88146296     0.02200
C808        C  0.58043125  0.93944792  0.88279354    -0.00100
C809        C  0.60043094  0.94967231  0.83988389    -0.11800
C810        C  0.58542366  0.93342680  0.79592444     0.02100
H811        H  0.50183655  0.87450400  0.83697602     0.15100
H812        H  0.62781531  0.97121030  0.84047449     0.15100
C813        C  0.60764676  0.94692425  0.75329656     0.36700
C814        C  0.52205941  0.90099916  0.92378966     0.36600
N815        N  0.62556970  0.95793218  0.71926653    -0.43600
N816        N  0.50381429  0.89272018  0.95760107    -0.43600
C817        C  0.49926203  0.78003892  0.67052034     0.00000
C818        C  0.53041723  0.78043895  0.68452274    -0.11900
C819        C  0.53223800  0.74918237  0.68549742     0.02200
C820        C  0.50264158  0.71672917  0.67056297    -0.00100
C821        C  0.97157766  0.71666705  0.65611102    -0.11800
C822        C  0.96955732  0.74780735  0.65647945     0.02100
H823        H  0.55332766  0.80528221  0.69536743     0.15100
H824        H  0.94846390  0.69206037  0.64514292     0.15100
C825        C  0.93695853  0.74607358  0.64119501     0.36700
C826        C  0.56490987  0.75160185  0.70189005     0.36600
N827        N  0.91084763  0.74469224  0.62893605    -0.43600
N828        N  0.59105043  0.75363809  0.71541335    -0.43600
C829        C  0.49879561  0.96437639  0.66429308     0.00000
C830        C  0.52989074  0.99461187  0.67925488    -0.11900
C831        C  0.53222458  0.52863025  0.68290145     0.02200
C832        C  0.50255788  0.53139612  0.66779679    -0.00100
C833        C  0.97225083  0.50085779  0.65151011    -0.11800
C834        C  0.96857198  0.96705693  0.65244846     0.02100
H835        H  0.55276426  0.99232132  0.68954053     0.15100
H836        H  0.94902016  0.50226160  0.64078123     0.15100
C837        C  0.93618607  0.93668438  0.63584418     0.36700
C838        C  0.56404381  0.55830567  0.70201567     0.36600
N839        N  0.91029657  0.91234412  0.62242640    -0.43600
N840        N  0.58953873  0.58174938  0.71792603    -0.43600
C841        C  0.56663837  0.64984656  0.55172001     0.00000
C842        C  0.55575604  0.65774070  0.50805865    -0.11900
C843        C  0.57201674  0.65806317  0.46419117     0.02200
C844        C  0.59952947  0.64947303  0.46312877    -0.00100
C845        C  0.61202434  0.64397846  0.50729241    -0.11800
C846        C  0.59618300  0.64446324  0.55132788     0.02100
H847        H  0.53354219  0.66258196  0.50799677     0.15100
H848        H  0.63353533  0.63809963  0.50742618     0.15100
C849        C  0.60956369  0.63722459  0.59499201     0.36700
C850        C  0.55840789  0.66563898  0.42097752     0.36600
N851        N  0.62069995  0.63165894  0.62978130    -0.43600
N852        N  0.54743188  0.67184307  0.38652073    -0.43600
C853        C  0.65281065  0.59527286  0.21101356     0.00000
C854        C  0.65083543  0.61164967  0.16804300    -0.11900
C855        C  0.65002597  0.59703072  0.12274187     0.02200
C856        C  0.65065695  0.56488788  0.11965104    -0.00100
C857        C  0.65492354  0.54975413  0.16228538    -0.11800
C858        C  0.65644359  0.56473998  0.20753570     0.02100
H859        H  0.64865480  0.63542063  0.16982212     0.15100
H860        H  0.65610708  0.52543358  0.16039523     0.15100
C861        C  0.66008517  0.54704690  0.24957836     0.36700
C862        C  0.64616418  0.61445359  0.08054396     0.36600
N863        N  0.66326869  0.53283170  0.28305009    -0.43600
N864        N  0.64316248  0.62863275  0.04689430    -0.43600
C865        C  0.91503262  0.85285869  0.45207320     0.00000
C866        C  0.94944033  0.85755014  0.45102011    -0.11900
C867        C  0.96626122  0.85652549  0.49361266     0.02200
C868        C  0.94844970  0.85057837  0.53862870    -0.00100
C869        C  0.91283523  0.84274017  0.53887027    -0.11800
C870        C  0.89612746  0.84384895  0.49626051     0.02100
H871        H  0.96395903  0.86376877  0.41706922     0.15100
H872        H  0.89833696  0.83723397  0.57273618     0.15100
C873        C  0.85951751  0.83549088  0.49886476     0.36700
C874        C  0.00198112  0.86237409  0.48975995     0.36600
N875        N  0.83011271  0.82858209  0.50085620    -0.43600
N876        N  0.03059121  0.86704510  0.48645279    -0.43600
C877        C  0.97170878  0.97078309  0.32699914     0.00000
C878        C  0.00381454  0.97048371  0.32362908    -0.11900
C879        C  0.53552564  0.50151006  0.33981434     0.02200
C880        C  0.53773169  0.53508032  0.33734180    -0.00100
C881        C  0.50625090  0.53663085  0.33404313    -0.11800
C882        C  0.97259639  0.00368621  0.32953746     0.02100
H883        H  0.00339965  0.94537718  0.32099266     0.15100
H884        H  0.50757473  0.56220774  0.33197048     0.13300
C885        C  0.94048223  0.00588447  0.32991094     0.36700
C886        C  0.56670571  0.49775576  0.34207508     0.36600
N887        N  0.91475820  0.00765550  0.33002972    -0.43600
N888        N  0.59152556  0.49447206  0.34404221    -0.43600
C889        C  0.78835827  0.78452482  0.33548962     0.00000
C890        C  0.78937098  0.75285733  0.33979731    -0.11900
C891        C  0.75798234  0.71987094  0.34133342     0.02200
C892        C  0.72471385  0.71827045  0.33771295    -0.00100
C893        C  0.72386705  0.75005354  0.33319340    -0.11800
C894        C  0.75518587  0.78296685  0.33226891     0.02100
H895        H  0.81480623  0.75390445  0.34234229     0.15100
H896        H  0.69856634  0.74925834  0.33039583     0.15100
C897        C  0.75245205  0.81454521  0.32592888     0.36700
C898        C  0.76097056  0.68830099  0.34526325     0.36600
N899        N  0.75022726  0.83981357  0.32073959    -0.43600
N900        N  0.76350230  0.66308358  0.34846742    -0.43600
C901        C  0.85117784  0.90860049  0.21045285     0.00000
C902        C  0.84710506  0.93870386  0.21327247    -0.11900
C903        C  0.84449091  0.95562967  0.17147321     0.02200
C904        C  0.84587455  0.94242511  0.12553363    -0.00100
C905        C  0.84639681  0.91038216  0.12295206    -0.11800
C906        C  0.84920925  0.89356026  0.16464422     0.02100
H907        H  0.84757160  0.95010694  0.24815642     0.15100
H908        H  0.84678799  0.89944684  0.08802126     0.15100
C909        C  0.85070721  0.86131549  0.15895631     0.36700
C910        C  0.84054359  0.98651314  0.17687563     0.36600
N911        N  0.85189332  0.83547902  0.15424353    -0.43600
N912        N  0.83715340  0.01113013  0.18126670    -0.43600
loop_ 
_geom_bond_atom_site_label_1 
_geom_bond_atom_site_label_2 
_geom_bond_distance 
_geom_bond_site_symmetry_2 
_ccdc_geom_bond_type 
O1            V9   1.899       .  S
O1           C11   1.264       .  A
O2            V9   1.895       .  S
O2           C12   1.263       .  A
O3            V9   1.903       .  S
O3           C13   1.266       .  A
O4            V9   1.906       .  S
O4           C14   1.267       .  A
O5           V10   1.898       .  S
O5           C14   1.264       .  A
O6           V10   1.901       .  S
O6           C13   1.265       .  A
O7           V10   1.894       .  S
O7           C12   1.264       .  A
O8           V10   1.898       .  S
O8           C11   1.264       .  A
V9           V10   2.086       .  T
C11         C205   1.479       .  S
C12         C193   1.473       .  S
C13         C217   1.487       .  S
C14         C181   1.490       .  S
O15          V23   1.898       .  S
O15          C25   1.265       .  A
O16          V23   1.896       .  S
O16          C26   1.264       .  A
O17          V23   1.901       .  S
O17          C27   1.264       .  A
O18          V23   1.900       .  S
O18          C28   1.266       .  A
O19          V24   1.903       .  S
O19          C28   1.265       .  A
O20          V24   1.904       .  S
O20          C27   1.267       .  A
O21          V24   1.896       .  S
O21          C26   1.263       .  A
O22          V24   1.898       .  S
O22          C25   1.264       .  A
V23          V24   2.084       .  T
C25         C208   1.485       .  S
C26         C196   1.476       .  S
C27         C160   1.493       .  S
C28         C169   1.494       .  S
O29          V37   1.897       .  S
O29         C495   1.264       .  A
O30          V37   1.893       .  S
O30         C496   1.262       .  A
O31          V37   1.902       .  S
O31          C41   1.265       .  A
O32          V37   1.908       .  S
O32         C498   1.267       .  A
O33          V38   1.898       .  S
O33          C42   1.264       .  A
O34          V38   1.902       .  S
O34         C497   1.265   1_455  A
O35          V38   1.895       .  S
O35          C40   1.263       .  A
O36          V38   1.903       .  S
O36          C39   1.265       .  A
V37         V494   2.087       .  T
V38         V493   2.087   1_455  T
C39         O485   1.263   1_455  A
C39         C133   1.477       .  S
C40         O486   1.262   1_455  A
C40         C145   1.465       .  S
C41         O490   1.265       .  A
C41         C184   1.489       .  S
C42         O488   1.267       .  A
C42         C121   1.487       .  S
O43          V51   1.899       .  S
O43          C53   1.264       .  A
O44          V51   1.895       .  S
O44          C54   1.263       .  A
O45          V51   1.905       .  S
O45          C55   1.265       .  A
O46          V51   1.905   1_655  S
O46         C512   1.266       .  A
O47          V52   1.901       .  S
O47          C56   1.265       .  A
O48          V52   1.902       .  S
O48         C511   1.265       .  A
O49          V52   1.899       .  S
O49         C510   1.265       .  A
O50          V52   1.900       .  S
O50         C509   1.266       .  A
V51         V508   2.084   1_455  T
V52         V507   2.084       .  T
C53         O506   1.266   1_455  A
C53         C136   1.490       .  S
C54         O505   1.265   1_455  A
C54         C148   1.485       .  S
C55         O504   1.265       .  A
C55         C157   1.488       .  S
C56         O502   1.266       .  A
C56         C109   1.488       .  S
O57          V65   1.896       .  S
O57          C67   1.264   1_545  A
O58          V65   1.894       .  S
O58          C68   1.262   1_545  A
O59          V65   1.907   1_556  S
O59          C69   1.267       .  A
O60          V65   1.904   1_565  S
O60         C298   1.266       .  A
O61          V66   1.898   1_554  S
O61          C70   1.265       .  A
O62          V66   1.898       .  S
O62         C297   1.264       .  A
O63          V66   1.896       .  S
O63         C296   1.264       .  A
O64          V66   1.898       .  S
O64         C295   1.264   1_556  A
V65         V294   2.085   1_544  T
V66         V293   2.086   1_556  T
C67         O292   1.265   1_554  A
C67         C100   1.479       .  S
C68         O291   1.263   1_554  A
C68          C88   1.463       .  S
C69         O290   1.265       .  A
C69         C112   1.493       .  S
C70         O288   1.266       .  A
C70         C220   1.491       .  S
O71          V79   1.891       .  S
O71         C309   1.262   1_554  A
O72          V79   1.891       .  S
O72         C310   1.264   1_554  A
O73          V79   1.898   1_556  S
O73          C83   1.264       .  A
O74          V79   1.898       .  S
O74         C312   1.265       .  A
O75          V80   1.899   1_554  S
O75          C84   1.264       .  A
O76          V80   1.899   1_565  S
O76         C311   1.265       .  A
O77          V80   1.895       .  S
O77          C82   1.263   1_556  A
O78          V80   1.896       .  S
O78          C81   1.265   1_546  A
V79         V308   2.084   1_554  T
V80         V307   2.084   1_546  T
C81         O299   1.264       .  A
C81          C97   1.484       .  S
C82         O300   1.264   1_545  A
C82          C85   1.479       .  S
C83         O304   1.268       .  A
C83         C124   1.496       .  S
C84         O302   1.266       .  A
C84         C172   1.484       .  S
C85          C90   1.416   1_554  A
C85         C314   1.406   1_545  A
C86         C313   1.406   1_554  A
C86         C543   1.396   1_455  A
C86          H91   1.085       .  S
C87         C542   1.396       .  A
C87         C316   1.408   1_554  A
C87          C94   1.445       .  S
C88          C89   1.399   1_564  A
C88         C315   1.406       .  A
C89         C546   1.399       .  A
C89          H92   1.085       .  S
C90         C545   1.399   1_455  A
C90          C93   1.444       .  S
C93          N95   1.157       .  T
C94          N96   1.157       .  T
C97          C98   1.406   1_564  A
C97         C330   1.415       .  A
C98          C99   1.399       .  A
C98         H103   1.085       .  S
C99         C100   1.412   1_546  A
C99         C106   1.445       .  S
C100        C329   1.404       .  A
C101        C102   1.399       .  A
C101        C328   1.401       .  A
C101        H104   1.085       .  S
C102        C325   1.416   1_554  A
C102        C105   1.444       .  S
C105        N107   1.157       .  T
C106        N108   1.157       .  T
C109        C110   1.405       .  A
C109        C114   1.413       .  A
C110        C111   1.402       .  A
C110        H115   1.085       .  S
C111        C112   1.417       .  A
C111        C118   1.444       .  S
C112        C113   1.408       .  A
C113        C114   1.404       .  A
C113        H116   1.084       .  S
C114        C117   1.444       .  S
C117        N119   1.157       .  T
C118        N348   1.157   1_545  T
N120        C346   1.157       .  T
C121        C122   1.402       .  A
C121        C126   1.416       .  A
C122        C123   1.404       .  A
C122        H127   1.085       .  S
C123        C124   1.420       .  A
C123        C130   1.444       .  S
C124        C125   1.406       .  A
C125        C126   1.402       .  A
C125        H128   1.085       .  S
C126        C129   1.445       .  S
C129        N131   1.157       .  T
C130        N132   1.157       .  T
C133        C134   1.401       .  A
C133        C594   1.410   1_455  A
C134        C135   1.403       .  A
C134        H139   1.085       .  S
C135        C136   1.419       .  A
C135        C142   1.444       .  S
C136        C593   1.407   1_455  A
C137        C138   1.399       .  A
C137        C592   1.407       .  A
C137        H140   1.084       .  S
C138        C589   1.410       .  A
C138        C141   1.445       .  S
C141        N143   1.157       .  T
C142        N144   1.157       .  T
C145        C146   1.398       .  A
C145        C606   1.408   1_455  A
C146        C375   1.396       .  A
C146        H151   1.081       .  S
C147        C148   1.418       .  A
C147        C374   1.397   1_545  A
C147        C154   1.444       .  S
C148        C605   1.408   1_455  A
C149        C604   1.408       .  A
C149        C378   1.400   1_545  A
C149        H152   1.084       .  S
C150        C601   1.407       .  A
C150        C377   1.398       .  A
C150        C153   1.443       .  S
C153        N155   1.157       .  T
C154        N156   1.157       .  T
C157        C158   1.404       .  A
C157        C162   1.414       .  A
C158        C159   1.403       .  A
C158        H163   1.085       .  S
C159        C160   1.418       .  A
C159        C166   1.444       .  S
C160        C161   1.406       .  A
C161        C162   1.402       .  A
C161        H164   1.085       .  S
C162        C165   1.443       .  S
C165        N167   1.157       .  T
C166        N168   1.157       .  T
C169        C170   1.407       .  A
C169        C174   1.419       .  A
C170        C171   1.400       .  A
C170        H175   1.085       .  S
C171        C172   1.413       .  A
C171        C178   1.445       .  S
C172        C173   1.403       .  A
C173        C174   1.404       .  A
C173        H176   1.085       .  S
C174        C177   1.444       .  S
C177        N179   1.157       .  T
C178        N180   1.157       .  T
C181        C182   1.407       .  A
C181        C186   1.414       .  A
C182        C183   1.402       .  A
C182        H187   1.085       .  S
C183        C184   1.413       .  A
C183        C190   1.444       .  S
C184        C185   1.407       .  A
C185        C186   1.403       .  A
C185        H188   1.084       .  S
C186        C189   1.444       .  S
C189        N191   1.157       .  T
C190        N192   1.157       .  T
C193        C194   1.401       .  A
C193        C198   1.411       .  A
C194        C879   1.397       .  A
C194        H199   1.085       .  S
C195        C196   1.413       .  A
C195        C878   1.399   1_545  A
C195        C202   1.444       .  S
C196        C197   1.403       .  A
C197        C882   1.398   1_455  A
C197        H200   1.085       .  S
C198        C881   1.399       .  A
C198        C201   1.445       .  S
C201        N203   1.157       .  T
C202        N204   1.157   1_545  T
C205        C206   1.403       .  A
C205        C210   1.411       .  A
C206        C207   1.401       .  A
C206        H211   1.085       .  S
C207        C208   1.416       .  A
C207        C214   1.444       .  S
C208        C209   1.406       .  A
C209        C210   1.400       .  A
C209        H212   1.085       .  S
C210        C213   1.444       .  S
C213        N215   1.157       .  T
C214        N216   1.157       .  T
C217        C218   1.406       .  A
C217        C222   1.413       .  A
C218        C219   1.403       .  A
C218        H223   1.085       .  S
C219        C220   1.415       .  A
C219        C226   1.444       .  S
C220        C221   1.408       .  A
C221        C222   1.401       .  A
C221        H224   1.084       .  S
C222        C225   1.444       .  S
C225        N227   1.157       .  T
C226        N228   1.157       .  T
O229        V237   1.892       .  S
O229        C239   1.263       .  A
O230        V237   1.894       .  S
O230        C240   1.263       .  A
O231        V237   1.901       .  S
O231        C241   1.265       .  A
O232        V237   1.900       .  S
O232        C242   1.265       .  A
O233        V238   1.901       .  S
O233        C242   1.264       .  A
O234        V238   1.901       .  S
O234        C241   1.266       .  A
O235        V238   1.897       .  S
O235        C240   1.264       .  A
O236        V238   1.897       .  S
O236        C239   1.264       .  A
V237        V238   2.086       .  T
C239        C433   1.474       .  S
C240        C421   1.477       .  S
C241        C445   1.489       .  S
C242        C409   1.482       .  S
O243        V251   1.892       .  S
O243        C253   1.264       .  A
O244        V251   1.896       .  S
O244        C254   1.264       .  A
O245        V251   1.894       .  S
O245        C255   1.263       .  A
O246        V251   1.897       .  S
O246        C256   1.265       .  A
O247        V252   1.908       .  S
O247        C256   1.267       .  A
O248        V252   1.908       .  S
O248        C255   1.268       .  A
O249        V252   1.894       .  S
O249        C254   1.263       .  A
O250        V252   1.896       .  S
O250        C253   1.263       .  A
V251        V252   2.085       .  T
C253        C436   1.479       .  S
C254        C424   1.478       .  S
C255        C388   1.492       .  S
C256        C397   1.492       .  S
O257        V265   1.897       .  S
O257        C723   1.263       .  A
O258        V265   1.895       .  S
O258        C724   1.263       .  A
O259        V265   1.902       .  S
O259        C269   1.266       .  A
O260        V265   1.909       .  S
O260        C726   1.268       .  A
O261        V266   1.895       .  S
O261        C270   1.263       .  A
O262        V266   1.899       .  S
O262        C725   1.265   1_455  A
O263        V266   1.895       .  S
O263        C268   1.263   1_455  A
O264        V266   1.896       .  S
O264        C267   1.263   1_455  A
V265        V722   2.086       .  T
V266        V721   2.086   1_455  T
C267        O713   1.263       .  A
C267        C361   1.472       .  S
C268        O714   1.263       .  A
C268        C373   1.470       .  S
C269        O718   1.265       .  A
C269        C412   1.490       .  S
C270        O716   1.268   1_455  A
C270        C349   1.495       .  S
O271        V279   1.893       .  S
O271        C281   1.263       .  A
O272        V279   1.891       .  S
O272        C282   1.263       .  A
O273        V279   1.904       .  S
O273        C283   1.265       .  A
O274        V279   1.898   1_655  S
O274        C740   1.265       .  A
O275        V280   1.899       .  S
O275        C284   1.263       .  A
O276        V280   1.897       .  S
O276        C739   1.265       .  A
O277        V280   1.896       .  S
O277        C738   1.265       .  A
O278        V280   1.898       .  S
O278        C737   1.265       .  A
V279        V736   2.084   1_455  T
V280        V735   2.084       .  T
C281        O734   1.265   1_455  A
C281        C364   1.485       .  S
C282        O733   1.265   1_455  A
C282        C376   1.480       .  S
C283        O732   1.265       .  A
C283        C385   1.485       .  S
C284        O730   1.265       .  A
C284        C337   1.478       .  S
O285        V293   1.892       .  S
O285        C295   1.263       .  A
O286        V293   1.892       .  S
O286        C296   1.262   1_554  A
O287        V293   1.898   1_556  S
O287        C297   1.265       .  A
O288        V293   1.905       .  S
O289        V294   1.898   1_554  S
O289        C298   1.265       .  A
O290        V294   1.898   1_545  S
O291        V294   1.897       .  S
O292        V294   1.899       .  S
C295        C328   1.475       .  S
C296        C316   1.470       .  S
C297        C340   1.488       .  S
C298        C448   1.487       .  S
O299        V307   1.899       .  S
O300        V307   1.896       .  S
O301        V307   1.905   1_556  S
O301        C311   1.265       .  A
O302        V307   1.905   1_545  S
O303        V308   1.908   1_554  S
O303        C312   1.266       .  A
O304        V308   1.908       .  S
O305        V308   1.899       .  S
O305        C310   1.264       .  A
O306        V308   1.900       .  S
O306        C309   1.265       .  A
C309        C325   1.482       .  S
C310        C313   1.482       .  S
C311        C352   1.484       .  S
C312        C400   1.488       .  S
C313        C318   1.416       .  A
C314        C771   1.398   1_455  A
C314        H319   1.085       .  S
C315        C770   1.398       .  A
C315        C322   1.444       .  S
C316        C317   1.402       .  A
C317        C774   1.400       .  A
C317        H320   1.085       .  S
C318        C773   1.400   1_455  A
C318        C321   1.444       .  S
C321        N323   1.157       .  T
C322        N324   1.157       .  T
C325        C326   1.404       .  A
C326        C327   1.398       .  A
C326        H331   1.085       .  S
C327        C328   1.413   1_556  A
C327        C334   1.445       .  S
C329        C330   1.400       .  A
C329        H332   1.085       .  S
C330        C333   1.444       .  S
C333        N335   1.157       .  T
C334        N336   1.157       .  T
C337        C338   1.403       .  A
C337        C342   1.409       .  A
C338        C339   1.402       .  A
C338        H343   1.085       .  S
C339        C340   1.417       .  A
C339        C346   1.445       .  S
C340        C341   1.407       .  A
C341        C342   1.399       .  A
C341        H344   1.084       .  S
C342        C345   1.444       .  S
C345        N347   1.157       .  T
C349        C350   1.407       .  A
C349        C354   1.420       .  A
C350        C351   1.404       .  A
C350        H355   1.084       .  S
C351        C352   1.414       .  A
C351        C358   1.444       .  S
C352        C353   1.401       .  A
C353        C354   1.401       .  A
C353        H356   1.085       .  S
C354        C357   1.444       .  S
C357        N359   1.157       .  T
C358        N360   1.157       .  T
C361        C362   1.400   1_655  A
C361        C822   1.409       .  A
C362        C363   1.399       .  A
C362        H367   1.085       .  S
C363        C364   1.418       .  A
C363        C370   1.444       .  S
C364        C821   1.407   1_455  A
C365        C820   1.407       .  A
C365        C366   1.399       .  A
C365        H368   1.084       .  S
C366        C817   1.409       .  A
C366        C369   1.445       .  S
C369        N371   1.157       .  T
C370        N372   1.157       .  T
C373        C374   1.399   1_655  A
C373        C834   1.409       .  A
C374        H379   1.085       .  S
C375        C376   1.416       .  A
C375        C382   1.444       .  S
C376        C833   1.407   1_455  A
C377        C832   1.407       .  A
C377        H380   1.083       .  S
C378        C829   1.409       .  A
C378        C381   1.445       .  S
C381        N383   1.157       .  T
C382        N384   1.157       .  T
C385        C386   1.402       .  A
C385        C390   1.415       .  A
C386        C387   1.400       .  A
C386        H391   1.085       .  S
C387        C388   1.419       .  A
C387        C394   1.444       .  S
C388        C389   1.406       .  A
C389        C390   1.403       .  A
C389        H392   1.085       .  S
C390        C393   1.443       .  S
C393        N395   1.157       .  T
C394        N396   1.157       .  T
C397        C398   1.407       .  A
C397        C402   1.416       .  A
C398        C399   1.402       .  A
C398        H403   1.085       .  S
C399        C400   1.414       .  A
C399        C406   1.444       .  S
C400        C401   1.405       .  A
C401        C402   1.403       .  A
C401        H404   1.085       .  S
C402        C405   1.443       .  S
C405        N407   1.157       .  T
C406        N408   1.157       .  T
C409        C410   1.403       .  A
C409        C414   1.411       .  A
C410        C411   1.402       .  A
C410        H415   1.085       .  S
C411        C412   1.417       .  A
C411        C418   1.444       .  S
C412        C413   1.407       .  A
C413        C414   1.401       .  A
C413        H416   1.084       .  S
C414        C417   1.444       .  S
C417        N419   1.157       .  T
C418        N420   1.157       .  T
C421        C422   1.404       .  A
C421        C426   1.413   1_565  A
C422        C651   1.399   1_565  A
C422        H427   1.085       .  S
C423        C650   1.397       .  A
C423        C424   1.414       .  A
C423        C430   1.444       .  S
C424        C425   1.405       .  A
C425        C654   1.399   1_455  A
C425        H428   1.085       .  S
C426        C653   1.398       .  A
C426        C429   1.445       .  S
C429        N431   1.157       .  T
C430        N432   1.157       .  T
C433        C434   1.403       .  A
C433        C438   1.411       .  A
C434        C435   1.400       .  A
C434        H439   1.085       .  S
C435        C436   1.415       .  A
C435        C442   1.444       .  S
C436        C437   1.404       .  A
C437        C438   1.396       .  A
C437        H440   1.085       .  S
C438        C441   1.445       .  S
C441        N443   1.157       .  T
C442        N444   1.157       .  T
C445        C446   1.408       .  A
C445        C450   1.415       .  A
C446        C447   1.403       .  A
C446        H451   1.084       .  S
C447        C448   1.413       .  A
C447        C454   1.444       .  S
C448        C449   1.406       .  A
C449        C450   1.401       .  A
C449        H452   1.085       .  S
C450        C453   1.444       .  S
C453        N455   1.157       .  T
C454        N456   1.157   1_565  T
O457        V465   1.899       .  S
O457        C467   1.264       .  A
O458        V465   1.895       .  S
O458        C468   1.263       .  A
O459        V465   1.903       .  S
O459        C469   1.266       .  A
O460        V465   1.906       .  S
O460        C470   1.267       .  A
O461        V466   1.898       .  S
O461        C470   1.265       .  A
O462        V466   1.901       .  S
O462        C469   1.265       .  A
O463        V466   1.894       .  S
O463        C468   1.263       .  A
O464        V466   1.898       .  S
O464        C467   1.264       .  A
V465        V466   2.086       .  T
C467        C661   1.479       .  S
C468        C649   1.472       .  S
C469        C673   1.488       .  S
C470        C637   1.490       .  S
O471        V479   1.898       .  S
O471        C481   1.265       .  A
O472        V479   1.896       .  S
O472        C482   1.264       .  A
O473        V479   1.901       .  S
O473        C483   1.264       .  A
O474        V479   1.900       .  S
O474        C484   1.266       .  A
O475        V480   1.903       .  S
O475        C484   1.265       .  A
O476        V480   1.904       .  S
O476        C483   1.267       .  A
O477        V480   1.896       .  S
O477        C482   1.264       .  A
O478        V480   1.899       .  S
O478        C481   1.264       .  A
V479        V480   2.084       .  T
C481        C664   1.485       .  S
C482        C652   1.476       .  S
C483        C616   1.493       .  S
C484        C625   1.494       .  S
O485        V493   1.896       .  S
O486        V493   1.892       .  S
O487        V493   1.902       .  S
O487        C497   1.266       .  A
O488        V493   1.908   1_455  S
O489        V494   1.898       .  S
O489        C498   1.264       .  A
O490        V494   1.902       .  S
O491        V494   1.895       .  S
O491        C496   1.263       .  A
O492        V494   1.902       .  S
O492        C495   1.264       .  A
C495        C589   1.477       .  S
C496        C601   1.465       .  S
C497        C640   1.489       .  S
C498        C577   1.488       .  S
O499        V507   1.899       .  S
O499        C509   1.264       .  A
O500        V507   1.896       .  S
O500        C510   1.264       .  A
O501        V507   1.905       .  S
O501        C511   1.265       .  A
O502        V507   1.905       .  S
O503        V508   1.901       .  S
O503        C512   1.265       .  A
O504        V508   1.901   1_455  S
O505        V508   1.899       .  S
O506        V508   1.900       .  S
C509        C592   1.490       .  S
C510        C604   1.485       .  S
C511        C613   1.488       .  S
C512        C565   1.488       .  S
O513        V521   1.897       .  S
O513        C523   1.264   1_545  A
O514        V521   1.894       .  S
O514        C524   1.262   1_545  A
O515        V521   1.906   1_556  S
O515        C525   1.267       .  A
O516        V521   1.904   1_565  S
O516        C754   1.266       .  A
O517        V522   1.897   1_554  S
O517        C526   1.265       .  A
O518        V522   1.898       .  S
O518        C753   1.264       .  A
O519        V522   1.896       .  S
O519        C752   1.264       .  A
O520        V522   1.899       .  S
O520        C751   1.264   1_556  A
V521        V750   2.085   1_544  T
V522        V749   2.086   1_556  T
C523        O748   1.265   1_554  A
C523        C556   1.480       .  S
C524        O747   1.263   1_554  A
C524        C544   1.463       .  S
C525        O746   1.265       .  A
C525        C568   1.493       .  S
C526        O744   1.267       .  A
C526        C676   1.491       .  S
O527        V535   1.891       .  S
O527        C765   1.262   1_554  A
O528        V535   1.891       .  S
O528        C766   1.264   1_554  A
O529        V535   1.897   1_556  S
O529        C539   1.263       .  A
O530        V535   1.898       .  S
O530        C768   1.265       .  A
O531        V536   1.899   1_554  S
O531        C540   1.264       .  A
O532        V536   1.899   1_565  S
O532        C767   1.265       .  A
O533        V536   1.895       .  S
O533        C538   1.264   1_556  A
O534        V536   1.897       .  S
O534        C537   1.265   1_546  A
V535        V764   2.084   1_554  T
V536        V763   2.084   1_546  T
C537        O755   1.264       .  A
C537        C553   1.484       .  S
C538        O756   1.264   1_545  A
C538        C541   1.478       .  S
C539        O760   1.268       .  A
C539        C580   1.496       .  S
C540        O758   1.266       .  A
C540        C628   1.484       .  S
C541        C770   1.406   1_545  A
C541        C546   1.416   1_554  A
C542        C769   1.406   1_554  A
C542        H547   1.085       .  S
C543        C772   1.408   1_554  A
C543        C550   1.445       .  S
C544        C771   1.406       .  A
C544        C545   1.399   1_564  A
C545        H548   1.085       .  S
C546        C549   1.444       .  S
C549        N551   1.157       .  T
C550        N552   1.157       .  T
C553        C554   1.405   1_564  A
C553        C786   1.415       .  A
C554        C555   1.399       .  A
C554        H559   1.085       .  S
C555        C556   1.412   1_546  A
C555        C562   1.444       .  S
C556        C785   1.404       .  A
C557        C784   1.401   1_554  A
C557        C558   1.399       .  A
C557        H560   1.085       .  S
C558        C781   1.417   1_554  A
C558        C561   1.444       .  S
C561        N563   1.157       .  T
C562        N564   1.157       .  T
C565        C566   1.405       .  A
C565        C570   1.413       .  A
C566        C567   1.402       .  A
C566        H571   1.085       .  S
C567        C568   1.417       .  A
C567        C574   1.444       .  S
C568        C569   1.408       .  A
C569        C570   1.404       .  A
C569        H572   1.084       .  S
C570        C573   1.444       .  S
C573        N575   1.157   1_655  T
C574        N804   1.157   1_545  T
N576        C802   1.157       .  T
C577        C578   1.402       .  A
C577        C582   1.416       .  A
C578        C579   1.404       .  A
C578        H583   1.085       .  S
C579        C580   1.420       .  A
C579        C586   1.444       .  S
C580        C581   1.406       .  A
C581        C582   1.403       .  A
C581        H584   1.085       .  S
C582        C585   1.445       .  S
C585        N587   1.157       .  T
C586        N588   1.157       .  T
C589        C590   1.401       .  A
C590        C591   1.403       .  A
C590        H595   1.085       .  S
C591        C592   1.419       .  A
C591        C598   1.444       .  S
C593        C594   1.399       .  A
C593        H596   1.084       .  S
C594        C597   1.445       .  S
C597        N599   1.157       .  T
C598        N600   1.157       .  T
C601        C602   1.398       .  A
C602        C831   1.396       .  A
C602        H607   1.082       .  S
C603        C830   1.398   1_545  A
C603        C604   1.418       .  A
C603        C610   1.444       .  S
C605        C834   1.400   1_545  A
C605        H608   1.084       .  S
C606        C833   1.398       .  A
C606        C609   1.444       .  S
C609        N611   1.157       .  T
C610        N612   1.157       .  T
C613        C614   1.404       .  A
C613        C618   1.414       .  A
C614        C615   1.403       .  A
C614        H619   1.085       .  S
C615        C616   1.418       .  A
C615        C622   1.444       .  S
C616        C617   1.406       .  A
C617        C618   1.402       .  A
C617        H620   1.085       .  S
C618        C621   1.443       .  S
C621        N623   1.157       .  T
C622        N624   1.157       .  T
C625        C626   1.407       .  A
C625        C630   1.419       .  A
C626        C627   1.400       .  A
C626        H631   1.085       .  S
C627        C628   1.413       .  A
C627        C634   1.445       .  S
C628        C629   1.403       .  A
C629        C630   1.404       .  A
C629        H632   1.085       .  S
C630        C633   1.444       .  S
C633        N635   1.157       .  T
C634        N636   1.157       .  T
C637        C638   1.407       .  A
C637        C642   1.414       .  A
C638        C639   1.402       .  A
C638        H643   1.085       .  S
C639        C640   1.414       .  A
C639        C646   1.444       .  S
C640        C641   1.407       .  A
C641        C642   1.403       .  A
C641        H644   1.084       .  S
C642        C645   1.444       .  S
C645        N647   1.157       .  T
C646        N648   1.157   1_655  T
C649        C650   1.401   1_655  A
C649        C654   1.411       .  A
C650        H655   1.085       .  S
C651        C652   1.413       .  A
C651        C658   1.444       .  S
C652        C653   1.403       .  A
C653        H656   1.085       .  S
C654        C657   1.445       .  S
C657        N659   1.157       .  T
C658        N660   1.157   1_545  T
C661        C662   1.403       .  A
C661        C666   1.411       .  A
C662        C663   1.401       .  A
C662        H667   1.085       .  S
C663        C664   1.416       .  A
C663        C670   1.444       .  S
C664        C665   1.406       .  A
C665        C666   1.400       .  A
C665        H668   1.085       .  S
C666        C669   1.444       .  S
C669        N671   1.157       .  T
C670        N672   1.157       .  T
C673        C674   1.406       .  A
C673        C678   1.413       .  A
C674        C675   1.404       .  A
C674        H679   1.085       .  S
C675        C676   1.415       .  A
C675        C682   1.444       .  S
C676        C677   1.407       .  A
C677        C678   1.401       .  A
C677        H680   1.084       .  S
C678        C681   1.444       .  S
C681        N683   1.157       .  T
C682        N684   1.157       .  T
O685        V693   1.891       .  S
O685        C695   1.263       .  A
O686        V693   1.893       .  S
O686        C696   1.263       .  A
O687        V693   1.901       .  S
O687        C697   1.265       .  A
O688        V693   1.900       .  S
O688        C698   1.265       .  A
O689        V694   1.901       .  S
O689        C698   1.264       .  A
O690        V694   1.902       .  S
O690        C697   1.266       .  A
O691        V694   1.897       .  S
O691        C696   1.264       .  A
O692        V694   1.897       .  S
O692        C695   1.264       .  A
V693        V694   2.086       .  T
C695        C889   1.474       .  S
C696        C877   1.476       .  S
C697        C901   1.489       .  S
C698        C865   1.482       .  S
O699        V707   1.893       .  S
O699        C709   1.264       .  A
O700        V707   1.896       .  S
O700        C710   1.264       .  A
O701        V707   1.894       .  S
O701        C711   1.263       .  A
O702        V707   1.898       .  S
O702        C712   1.265       .  A
O703        V708   1.908       .  S
O703        C712   1.267       .  A
O704        V708   1.908       .  S
O704        C711   1.268       .  A
O705        V708   1.893       .  S
O705        C710   1.263       .  A
O706        V708   1.895       .  S
O706        C709   1.263       .  A
V707        V708   2.084       .  T
C709        C892   1.479       .  S
C710        C880   1.478       .  S
C711        C844   1.493       .  S
C712        C853   1.492       .  S
O713        V721   1.897       .  S
O714        V721   1.896       .  S
O715        V721   1.902       .  S
O715        C725   1.266       .  A
O716        V721   1.909       .  S
O717        V722   1.895       .  S
O717        C726   1.263       .  A
O718        V722   1.899       .  S
O719        V722   1.895       .  S
O719        C724   1.263       .  A
O720        V722   1.896       .  S
O720        C723   1.263       .  A
C723        C817   1.472       .  S
C724        C829   1.470       .  S
C725        C868   1.490       .  S
C726        C805   1.494       .  S
O727        V735   1.893       .  S
O727        C737   1.263       .  A
O728        V735   1.891       .  S
O728        C738   1.262       .  A
O729        V735   1.904       .  S
O729        C739   1.265       .  A
O730        V735   1.898       .  S
O731        V736   1.900       .  S
O731        C740   1.264       .  A
O732        V736   1.898   1_455  S
O733        V736   1.897       .  S
O734        V736   1.898       .  S
C737        C820   1.486       .  S
C738        C832   1.480       .  S
C739        C841   1.485       .  S
C740        C793   1.479       .  S
O741        V749   1.893       .  S
O741        C751   1.263       .  A
O742        V749   1.893       .  S
O742        C752   1.262   1_554  A
O743        V749   1.899   1_556  S
O743        C753   1.265       .  A
O744        V749   1.906       .  S
O745        V750   1.898   1_554  S
O745        C754   1.265       .  A
O746        V750   1.899   1_545  S
O747        V750   1.897       .  S
O748        V750   1.899       .  S
C751        C784   1.476   1_554  S
C752        C772   1.471       .  S
C753        C796   1.488       .  S
C754        C904   1.487       .  S
O755        V763   1.898       .  S
O756        V763   1.895       .  S
O757        V763   1.905   1_556  S
O757        C767   1.266       .  A
O758        V763   1.905   1_545  S
O759        V764   1.909   1_554  S
O759        C768   1.267       .  A
O760        V764   1.909       .  S
O761        V764   1.898       .  S
O761        C766   1.264       .  A
O762        V764   1.900       .  S
O762        C765   1.265       .  A
C765        C781   1.482       .  S
C766        C769   1.482       .  S
C767        C808   1.485       .  S
C768        C856   1.488       .  S
C769        C774   1.416       .  A
C770        H775   1.085       .  S
C771        C778   1.444       .  S
C772        C773   1.403       .  A
C773        H776   1.085       .  S
C774        C777   1.444       .  S
C777        N779   1.157       .  T
C778        N780   1.157       .  T
C781        C782   1.405       .  A
C782        C783   1.399       .  A
C782        H787   1.085       .  S
C783        C784   1.413       .  A
C783        C790   1.445       .  S
C785        C786   1.400       .  A
C785        H788   1.085       .  S
C786        C789   1.444       .  S
C789        N791   1.157       .  T
C790        N792   1.157       .  T
C793        C794   1.403       .  A
C793        C798   1.409       .  A
C794        C795   1.402       .  A
C794        H799   1.085       .  S
C795        C796   1.417       .  A
C795        C802   1.445       .  S
C796        C797   1.407       .  A
C797        C798   1.399       .  A
C797        H800   1.084       .  S
C798        C801   1.444       .  S
C801        N803   1.157       .  T
C805        C806   1.407       .  A
C805        C810   1.420       .  A
C806        C807   1.404       .  A
C806        H811   1.084       .  S
C807        C808   1.414       .  A
C807        C814   1.444       .  S
C808        C809   1.402       .  A
C809        C810   1.401       .  A
C809        H812   1.085       .  S
C810        C813   1.444       .  S
C813        N815   1.157       .  T
C814        N816   1.157       .  T
C817        C818   1.400       .  A
C818        C819   1.399       .  A
C818        H823   1.085       .  S
C819        C820   1.418       .  A
C819        C826   1.444       .  S
C821        C822   1.399       .  A
C821        H824   1.084       .  S
C822        C825   1.445       .  S
C825        N827   1.157       .  T
C826        N828   1.157       .  T
C829        C830   1.399       .  A
C830        H835   1.085       .  S
C831        C832   1.417       .  A
C831        C838   1.444       .  S
C833        H836   1.083       .  S
C834        C837   1.445       .  S
C837        N839   1.157       .  T
C838        N840   1.157       .  T
C841        C842   1.402       .  A
C841        C846   1.414       .  A
C842        C843   1.400       .  A
C842        H847   1.085       .  S
C843        C844   1.419       .  A
C843        C850   1.444       .  S
C844        C845   1.407       .  A
C845        C846   1.404       .  A
C845        H848   1.085       .  S
C846        C849   1.443       .  S
C849        N851   1.157       .  T
C850        N852   1.157       .  T
C853        C854   1.408       .  A
C853        C858   1.416       .  A
C854        C855   1.403       .  A
C854        H859   1.085       .  S
C855        C856   1.414       .  A
C855        C862   1.444       .  S
C856        C857   1.405       .  A
C857        C858   1.403       .  A
C857        H860   1.085       .  S
C858        C861   1.443       .  S
C861        N863   1.157       .  T
C862        N864   1.157       .  T
C865        C866   1.403       .  A
C865        C870   1.411       .  A
C866        C867   1.402       .  A
C866        H871   1.085       .  S
C867        C868   1.417       .  A
C867        C874   1.444   1_655  S
C868        C869   1.407       .  A
C869        C870   1.401       .  A
C869        H872   1.084       .  S
C870        C873   1.444       .  S
C873        N875   1.157       .  T
C874        N876   1.157       .  T
C877        C878   1.403   1_655  A
C877        C882   1.413   1_565  A
C878        H883   1.085       .  S
C879        C880   1.414       .  A
C879        C886   1.444       .  S
C880        C881   1.405       .  A
C881        H884   1.085       .  S
C882        C885   1.445       .  S
C885        N887   1.157       .  T
C886        N888   1.157       .  T
C889        C890   1.403       .  A
C889        C894   1.411       .  A
C890        C891   1.400       .  A
C890        H895   1.085       .  S
C891        C892   1.415       .  A
C891        C898   1.444       .  S
C892        C893   1.404       .  A
C893        C894   1.396       .  A
C893        H896   1.085       .  S
C894        C897   1.445       .  S
C897        N899   1.157       .  T
C898        N900   1.157       .  T
C901        C902   1.407       .  A
C901        C906   1.414       .  A
C902        C903   1.403       .  A
C902        H907   1.085       .  S
C903        C904   1.413       .  A
C903        C910   1.444       .  S
C904        C905   1.406       .  A
C905        C906   1.401       .  A
C905        H908   1.085       .  S
C906        C909   1.444       .  S
C909        N911   1.157       .  T
C910        N912   1.157   1_565  T
