geometry optimzed in LAMMPS
_audit_creation_date              2020-12-01 
_audit_creation_method            'lammps2cif' 
_symmetry_space_group_name_H-M    'P1' 
_symmetry_Int_Tables_number       1 
_symmetry_cell_setting            triclinic 
loop_ 
_symmetry_equiv_pos_as_xyz 
  x,y,z 
_cell_length_a                    48.58126856 
_cell_length_b                    48.64624683968131 
_cell_length_c                    50.61964478664221 
_cell_angle_alpha                 89.4288379207466 
_cell_angle_beta                  90.63153358736695 
_cell_angle_gamma                 120.65632403934556 
loop_ 
_atom_site_label 
_atom_site_type_symbol 
_atom_site_fract_x 
_atom_site_fract_y 
_atom_site_fract_z 
_atom_site_charge 
O1          O  0.34516640  0.09688182  0.94612214    -0.57000
C2          C  0.39816327  0.10783367  0.88406281     0.75600
O3          O  0.45717319  0.15932466  0.94687590    -0.58100
C4          C  0.34705619  0.10343911  0.97048808     0.75600
C5          C  0.40241758  0.05724073  0.96371882     0.78000
Cd6        Cd  0.40167976  0.11226664  0.94131396     1.37500
O7          O  0.37797628  0.11068324  0.89754208    -0.57000
O8          O  0.38577299  0.05583968  0.94385323    -0.55800
C9          C  0.44851329  0.17993245  0.94661528     0.78000
O10         O  0.42117492  0.08503210  0.97267647    -0.58200
O11         O  0.41985950  0.10648972  0.89712640    -0.56600
O12         O  0.37420770  0.11374694  0.98117250    -0.56600
O13         O  0.41873437  0.16884697  0.94485542    -0.55800
O14         O  0.38640833  0.13889846  0.71053642    -0.57000
C15         C  0.38815359  0.09380921  0.76973474     0.75600
O16         O  0.32319171  0.06638145  0.70218525    -0.58100
C17         C  0.38426790  0.13926481  0.68557604     0.75600
C18         C  0.43422946  0.08728449  0.68850335     0.78000
Cd19       Cd  0.37906239  0.08509073  0.71317921     1.37500
O20         O  0.38197270  0.11140795  0.75529640    -0.57000
O21         O  0.43608062  0.10103397  0.71005748    -0.55800
C22         C  0.31118451  0.03704804  0.70708372     0.78000
O23         O  0.40616882  0.06946214  0.67946253    -0.58200
O24         O  0.39009177  0.07196079  0.75798653    -0.56600
O25         O  0.38110412  0.11507117  0.67370977    -0.56600
O26         O  0.33095638  0.02867244  0.71439746    -0.55800
O27         O  0.09374297  0.38261781  0.75699485    -0.57000
C28         C  0.09821391  0.35358596  0.68726702     0.75600
O29         O  0.07675166  0.42459037  0.68056971    -0.58100
C30         C  0.09587153  0.40561784  0.77015065     0.75600
C31         C  0.17254949  0.45161283  0.70820000     0.78000
Cd32       Cd  0.10401669  0.40785839  0.71367694     1.37500
O33         O  0.09772342  0.35461691  0.71223626    -0.57000
O34         O  0.15973454  0.42200567  0.71236641    -0.55800
C35         C  0.04868084  0.40485540  0.68848205     0.78000
O36         O  0.15334072  0.46195164  0.70547009    -0.58200
O37         O  0.10026528  0.37714996  0.67470083    -0.56600
O38         O  0.10107275  0.43012830  0.75699798    -0.56600
O39         O  0.04681288  0.38942829  0.70930438    -0.55800
O40         O  0.10671631  0.39132912  0.89786152    -0.57000
C41         C  0.13657131  0.39237387  0.96852555     0.75600
O42         O  0.06372901  0.41388230  0.97196566    -0.58100
C43         C  0.08610626  0.39374182  0.88419210     0.75600
C44         C  0.03489300  0.31826756  0.94583533     0.78000
Cd45       Cd  0.08187398  0.38614491  0.94080454     1.37500
O46         O  0.13644461  0.39616365  0.94375337    -0.57000
O47         O  0.02636374  0.33893741  0.94689569    -0.55800
C48         C  0.08357450  0.44172926  0.96356359     0.78000
O49         O  0.06451630  0.32933081  0.94315923    -0.58200
O50         O  0.11125603  0.38607880  0.98047709    -0.56600
O51         O  0.06345438  0.39335068  0.89670658    -0.56600
O52         O  0.10038436  0.44306997  0.94417499    -0.55800
O53         O  0.34284015  0.24258749  0.37789667    -0.57000
C54         C  0.39579823  0.29425215  0.43511884     0.75600
O55         O  0.45145833  0.29701138  0.37036562    -0.58100
C56         C  0.34011656  0.24080316  0.35297755     0.75600
C57         C  0.39430486  0.34322111  0.35557027     0.78000
Cd58       Cd  0.39676763  0.28962792  0.37845760     1.37500
O59         O  0.37394675  0.27111071  0.42225510    -0.57000
O60         O  0.37973711  0.32903072  0.37643935    -0.55800
C61         C  0.44146611  0.26724976  0.37071914     0.78000
O62         O  0.41251573  0.33429883  0.34598296    -0.58200
O63         O  0.41839765  0.31615118  0.42175217    -0.56600
O64         O  0.36342885  0.26212283  0.33991806    -0.56600
O65         O  0.41176130  0.24927512  0.37378503    -0.55800
O66         O  0.38417279  0.27466481  0.56299940    -0.57000
C67         C  0.38152050  0.24384335  0.63226911     0.75600
O68         O  0.40234866  0.33286804  0.64109849    -0.58100
C69         C  0.38541740  0.29695867  0.54895965     0.75600
C70         C  0.30766965  0.27233651  0.60857029     0.78000
Cd71       Cd  0.37537507  0.29270476  0.60529707     1.37500
O72         O  0.38544934  0.24803081  0.60754769    -0.57000
O73         O  0.31784870  0.25311090  0.60788444    -0.55800
C74         C  0.42999192  0.34630550  0.63102224     0.78000
O75         O  0.32907707  0.30173274  0.60845197    -0.58200
O76         O  0.37493178  0.26239657  0.64430654    -0.56600
O77         O  0.38224881  0.31783950  0.56110958    -0.56600
O78         O  0.43136262  0.33746045  0.60791923    -0.55800
O79         O  0.21221659  0.11185635  0.09057047    -0.57000
C80         C  0.24035376  0.10094498  0.02268336     0.75600
O81         O  0.15265674  0.08603689  0.01009836    -0.58100
C82         C  0.18663935  0.10480628  0.10241311     0.75600
C83         C  0.21657013  0.18047594  0.03979978     0.78000
Cd84       Cd  0.19318749  0.11235198  0.04604264     1.37500
O85         O  0.23734544  0.10075677  0.04751331    -0.57000
O86         O  0.23444163  0.16886754  0.04248696    -0.55800
C87         C  0.13862934  0.05850718  0.02074132     0.78000
O88         O  0.18676238  0.16028618  0.03902873    -0.58200
O89         O  0.22121860  0.10571449  0.00904452    -0.56600
O90         O  0.16321866  0.10055744  0.08811602    -0.56600
O91         O  0.14769485  0.05690693  0.04393924    -0.55800
O92         O  0.20391971  0.10746707  0.23028326    -0.57000
C93         C  0.23505902  0.13274295  0.30051844     0.75600
O94         O  0.14345919  0.06330001  0.30645739    -0.58100
C95         C  0.18249906  0.08586971  0.21587143     0.75600
C96         C  0.21113296  0.03505693  0.27596929     0.78000
Cd97       Cd  0.18671874  0.07891526  0.27231032     1.37500
O98         O  0.23201360  0.13346615  0.27567397    -0.57000
O99         O  0.22849175  0.06498944  0.27382020    -0.55800
C100        C  0.13423647  0.08166333  0.29722046     0.78000
O101        O  0.18118458  0.02439124  0.27699907    -0.58200
O102        O  0.21546068  0.10699355  0.31206538    -0.56600
O103        O  0.16237850  0.06040467  0.22769422    -0.56600
O104        O  0.14665348  0.09526258  0.27557343    -0.55800
O105        O  0.09742907  0.21877116  0.41785423    -0.57000
C106        C  0.13013376  0.24546733  0.34870730     0.75600
O107        O  0.05948634  0.15138821  0.34328694    -0.58100
C108        C  0.07672865  0.19562321  0.43150360     0.75600
C109        C  0.02842736  0.21769653  0.36691810     0.78000
Cd110      Cd  0.07435855  0.19658765  0.37468836     1.37500
O111        O  0.12914463  0.24166251  0.37353512    -0.57000
O112        O  0.01885031  0.18824496  0.37032442    -0.55800
C113        C  0.07803987  0.14295051  0.35354505     0.78000
O114        O  0.05832929  0.23594751  0.36570504    -0.58200
O115        O  0.10531607  0.22591078  0.33591151    -0.56600
O116        O  0.05462879  0.17244342  0.41873577    -0.56600
O117        O  0.09213435  0.15722774  0.37456397    -0.55800
O118        O  0.09516080  0.22347736  0.55923300    -0.57000
C119        C  0.09847151  0.25221595  0.62902977     0.75600
O120        O  0.07664669  0.16268782  0.63765781    -0.58100
C121        C  0.09234418  0.20068663  0.54534178     0.75600
C122        C  0.17001651  0.22263062  0.60462252     0.78000
Cd123      Cd  0.10269869  0.20327799  0.60151633     1.37500
O124        O  0.08770592  0.24427690  0.60576206    -0.57000
O125        O  0.16015581  0.24139626  0.59856499    -0.55800
C126        C  0.04890682  0.14883871  0.62741331     0.78000
O127        O  0.14839102  0.19383178  0.60888828    -0.58200
O128        O  0.11098955  0.23731561  0.63924368    -0.56600
O129        O  0.09390726  0.17859289  0.55751995    -0.56600
O130        O  0.04701925  0.15827766  0.60448416    -0.55800
O131        O  0.27965540  0.38002906  0.22813621    -0.57000
C132        C  0.23659453  0.35025352  0.29403682     0.75600
O133        O  0.32697148  0.41975309  0.30712737    -0.58100
C134        C  0.29777354  0.40493055  0.21489051     0.75600
C135        C  0.26401167  0.45067677  0.27441166     0.78000
Cd136      Cd  0.28762316  0.40666793  0.27022917     1.37500
O137        O  0.23935620  0.35301947  0.26917801    -0.57000
O138        O  0.24692910  0.42176175  0.26780491    -0.55800
C139        C  0.34007396  0.40553735  0.29701705     0.78000
O140        O  0.29330837  0.46025578  0.27903974    -0.58200
O141        O  0.25772967  0.37344086  0.30733809    -0.56600
O142        O  0.31183772  0.43108760  0.22745202    -0.56600
O143        O  0.33129529  0.39538541  0.27377897    -0.55800
O144        O  0.28786762  0.40869564  0.08691233    -0.57000
C145        C  0.24431492  0.39316397  0.01972422     0.75600
O146        O  0.33440874  0.41265554  0.00960676    -0.58100
C147        C  0.30105223  0.39721199  0.10134973     0.75600
C148        C  0.26911261  0.31846057  0.04178322     0.78000
Cd149      Cd  0.29391038  0.38686488  0.04540391     1.37500
O150        O  0.24734222  0.39420081  0.04463015    -0.57000
O151        O  0.25212022  0.33060193  0.04653343    -0.55800
C152        C  0.34943321  0.43987693  0.02043762     0.78000
O153        O  0.29867065  0.33830277  0.03815412    -0.58200
O154        O  0.26448339  0.38954394  0.00702825    -0.56600
O155        O  0.31165788  0.38152685  0.08977865    -0.56600
O156        O  0.34126803  0.44115362  0.04378876    -0.55800
C157        C  0.30286220  0.40079725  0.13037782     0.00700
C158        C  0.29891610  0.37507242  0.14601077    -0.11200
C159        C  0.29779623  0.37606666  0.17357107     0.02900
C160        C  0.30133141  0.40358162  0.18603339     0.00600
C161        C  0.30664038  0.42984219  0.17043231    -0.11100
C162        C  0.30705027  0.42855263  0.14282593     0.02800
H163        H  0.29573171  0.35367759  0.13662553     0.15800
H164        H  0.30945877  0.45110427  0.17978487     0.15800
C165        C  0.31220697  0.45619353  0.12786093     0.37400
C166        C  0.29327161  0.34859716  0.18847614     0.37300
N167        N  0.31636420  0.47843608  0.11599226    -0.42900
N168        N  0.28961509  0.32654985  0.20037126    -0.42900
C169        C  0.15845941  0.27156010  0.33515630     0.00700
C170        C  0.16015289  0.27075453  0.30748014    -0.11200
C171        C  0.18552151  0.29555514  0.29350717     0.02900
C172        C  0.20997530  0.32205923  0.30733914     0.00600
C173        C  0.20858842  0.32242606  0.33503307    -0.11100
C174        C  0.18328517  0.29774901  0.34896268     0.02800
H175        H  0.14142573  0.25072887  0.29659278     0.15800
H176        H  0.22711164  0.34249019  0.34602723     0.15800
C177        C  0.18319312  0.30088673  0.37730290     0.37400
C178        C  0.18541782  0.29299952  0.26509412     0.37300
N179        N  0.18332918  0.30368358  0.39999018    -0.42900
N180        N  0.18516461  0.29075750  0.24233692    -0.42900
C181        C  0.07877381  0.19617599  0.46080864     0.00700
C182        C  0.09713488  0.22586079  0.47334501    -0.11200
C183        C  0.10138838  0.22797957  0.50078641     0.02900
C184        C  0.08745485  0.19986474  0.51636598     0.00600
C185        C  0.06874378  0.17020955  0.50395884    -0.11100
C186        C  0.06397346  0.16812607  0.47651497     0.02800
H187        H  0.10847453  0.24763853  0.46163307     0.15800
H188        H  0.05768874  0.14851998  0.51578341     0.15800
C189        C  0.04453487  0.13680352  0.46513353     0.37400
C190        C  0.12139275  0.25926111  0.51214307     0.37300
N191        N  0.02885745  0.11163569  0.45612909    -0.42900
N192        N  0.13748345  0.28440871  0.52106605    -0.42900
C193        C  0.22531400  0.01393905  0.27677217     0.00700
C194        C  0.20478820  0.48054218  0.27809180    -0.11200
C195        C  0.21681816  0.45970177  0.27787872     0.02900
C196        C  0.25023265  0.47194117  0.27617476     0.00600
C197        C  0.27084112  0.00528733  0.27561199    -0.11100
C198        C  0.25886635  0.02617514  0.27586185     0.02800
H199        H  0.17914351  0.47059744  0.27918307     0.15800
H200        H  0.29647898  0.01511761  0.27453077     0.15800
C201        C  0.28193456  0.06001623  0.27495725     0.37400
C202        C  0.19412454  0.42584515  0.27999152     0.37300
N203        N  0.30058603  0.08709015  0.27422195    -0.42900
N204        N  0.17600109  0.39871011  0.28174402    -0.42900
C205        C  0.11255203  0.08955480  0.31179053     0.00700
C206        C  0.11372679  0.09035781  0.33956106    -0.11200
C207        C  0.10053225  0.10550015  0.35390712     0.02900
C208        C  0.08534711  0.11996550  0.34046020     0.00600
C209        C  0.08128225  0.11612323  0.31295430    -0.11100
C210        C  0.09482935  0.10140817  0.29862508     0.02800
H211        H  0.12689923  0.08110230  0.35005356     0.15800
H212        H  0.06931959  0.12655705  0.30228414     0.15800
C213        C  0.09109305  0.09987993  0.27025322     0.37400
C214        C  0.10385649  0.10664307  0.38233143     0.37300
N215        N  0.08810226  0.09873421  0.24750856    -0.42900
N216        N  0.10652037  0.10749261  0.40510778    -0.42900
C217        C  0.25500654  0.28300932  0.04063880     0.00700
C218        C  0.27467447  0.27076226  0.03394660    -0.11200
C219        C  0.26268081  0.23770192  0.03303505     0.02900
C220        C  0.23002960  0.21576482  0.03864046     0.00600
C221        C  0.21025471  0.22795016  0.04494406    -0.11100
C222        C  0.22232254  0.26097914  0.04628389     0.02800
H223        H  0.29968974  0.28707247  0.02953539     0.15800
H224        H  0.18534244  0.21157218  0.04966485     0.15800
C225        C  0.20049794  0.27118310  0.05432178     0.37400
C226        C  0.28459327  0.22717448  0.02609171     0.37300
N227        N  0.18296182  0.27923465  0.06091467    -0.42900
N228        N  0.30216949  0.21873617  0.02060308    -0.42900
C229        C  0.18187930  0.09066025  0.18677234     0.00700
C230        C  0.20866219  0.11702199  0.17516991    -0.11200
C231        C  0.21018075  0.12249636  0.14790204     0.02900
C232        C  0.18451615  0.10142920  0.13147628     0.00600
C233        C  0.15719971  0.07581846  0.14293458    -0.11100
C234        C  0.15574319  0.07007738  0.17027176     0.02800
H235        H  0.22878832  0.13340078  0.18738426     0.15800
H236        H  0.13733725  0.05963666  0.13038759     0.15800
C237        C  0.12716607  0.04283269  0.18057554     0.37400
C238        C  0.23796123  0.15050425  0.13733817     0.37300
N239        N  0.10417564  0.02088047  0.18863285    -0.42900
N240        N  0.26005635  0.17299094  0.12878298    -0.42900
C241        C  0.27255130  0.26039276  0.60894234     0.00700
C242        C  0.25097737  0.22726395  0.61151558    -0.11200
C243        C  0.21769403  0.21429574  0.61047261     0.02900
C244        C  0.20506160  0.23457725  0.60662833     0.00600
C245        C  0.22662430  0.26772202  0.60453599    -0.11100
C246        C  0.25985129  0.28070064  0.60574025     0.02800
H247        H  0.26010669  0.21118331  0.61413772     0.15800
H248        H  0.21753595  0.28382846  0.60183754     0.15800
C249        C  0.28008016  0.31492357  0.60318870     0.37400
C250        C  0.19730822  0.18007898  0.61299351     0.37300
N251        N  0.29616238  0.34237675  0.60116472    -0.42900
N252        N  0.18097823  0.15265238  0.61502844    -0.42900
C253        C  0.00618204  0.23046692  0.36554978     0.00700
C254        C  0.47364041  0.20977556  0.37093830    -0.11200
C255        C  0.45218410  0.22096533  0.37225180     0.02900
C256        C  0.46306490  0.25388825  0.36816918     0.00600
C257        C  0.49546283  0.27447898  0.36212337    -0.11100
C258        C  0.01690522  0.26322409  0.36066723     0.02800
H259        H  0.46489377  0.18467201  0.37474105     0.15800
H260        H  0.50424353  0.29965002  0.35865444     0.15800
C261        C  0.04974494  0.28613142  0.35416034     0.37400
C262        C  0.41930194  0.19788088  0.37848066     0.37300
N263        N  0.07602503  0.30455444  0.34890495    -0.42900
N264        N  0.39297187  0.17931603  0.38345491    -0.42900
C265        C  0.36181720  0.39801442  0.31231941     0.00700
C266        C  0.35939605  0.39608193  0.33998034    -0.11200
C267        C  0.37236848  0.38085120  0.35487032     0.02900
C268        C  0.38799517  0.36686412  0.34205044     0.00600
C269        C  0.39361004  0.37210502  0.31478117    -0.11100
C270        C  0.38087663  0.38761482  0.29993178     0.02800
H271        H  0.34557336  0.40465242  0.34993299     0.15800
H272        H  0.40634338  0.36240985  0.30468611     0.15800
C273        C  0.38713475  0.39183810  0.27191971     0.37400
C274        C  0.36850276  0.37928903  0.38319679     0.37300
N275        N  0.39228318  0.39542747  0.24949402    -0.42900
N276        N  0.36551873  0.37821552  0.40590319    -0.42900
C277        C  0.31171503  0.21433050  0.33994124     0.00700
C278        C  0.29461560  0.18511799  0.35347938    -0.11200
C279        C  0.26922624  0.15835252  0.34138078     0.02900
C280        C  0.26043097  0.16058785  0.31504179     0.00600
C281        C  0.27682856  0.19017777  0.30187542    -0.11100
C282        C  0.30217752  0.21693187  0.31402892     0.02800
H283        H  0.30172766  0.18285944  0.37340838     0.15800
H284        H  0.26993284  0.19248602  0.28188527     0.15800
C285        C  0.31738931  0.24678427  0.29957963     0.37400
C286        C  0.25355916  0.12888033  0.35635328     0.37300
N287        N  0.32937991  0.27064802  0.28792144    -0.42900
N288        N  0.24107640  0.10535079  0.36845893    -0.42900
C289        C  0.39468552  0.29533788  0.46427849     0.00700
C290        C  0.40323845  0.32427664  0.47677968    -0.11200
C291        C  0.40045933  0.32561576  0.50427265     0.02900
C292        C  0.38958154  0.29764251  0.51983816     0.00600
C293        C  0.38206343  0.26899265  0.50724514    -0.11100
C294        C  0.38425028  0.26755824  0.47982490     0.02800
H295        H  0.41135436  0.34573840  0.46496419     0.15800
H296        H  0.37388829  0.24734379  0.51881315     0.15800
C297        C  0.37636313  0.23735428  0.46823779     0.37400
C298        C  0.40923955  0.35604238  0.51584789     0.37300
N299        N  0.37007374  0.21316425  0.45896874    -0.42900
N300        N  0.41624534  0.38046170  0.52505790    -0.42900
C301        C  0.08912312  0.47147448  0.97670910     0.00700
C302        C  0.08318441  0.47090965  0.00388984    -0.11200
C303        C  0.09598110  0.99940037  0.01850439     0.02900
C304        C  0.11569742  0.02917768  0.00585597     0.00600
C305        C  0.11785977  0.02978775  0.97818984    -0.11100
C306        C  0.10472656  0.50138696  0.96354580     0.02800
H307        H  0.07019349  0.44819391  0.01418563     0.15800
H308        H  0.13191865  0.05241514  0.96796542     0.15800
C309        C  0.10843222  0.50371618  0.93520331     0.37400
C310        C  0.08917211  0.99735438  0.04638733     0.37300
N311        N  0.11125260  0.50553467  0.91247547    -0.42900
N312        N  0.08339305  0.99569693  0.06867067    -0.42900
C313        C  0.16473117  0.39455618  0.98235524     0.00700
C314        C  0.19015119  0.39778547  0.96701125    -0.11200
C315        C  0.21657770  0.39814566  0.97860438     0.02900
C316        C  0.21806306  0.39521676  0.00635680     0.00600
C317        C  0.19317270  0.39308047  0.02179302    -0.11100
C318        C  0.16669014  0.39267637  0.01017250     0.02800
H319        H  0.18927127  0.39958483  0.94567421     0.15800
H320        H  0.19401480  0.39107271  0.04311278     0.15800
C321        C  0.14201663  0.39010684  0.02745710     0.37400
C322        C  0.24162340  0.40161005  0.96130095     0.37300
N323        N  0.12231657  0.38802923  0.04140743    -0.42900
N324        N  0.26158111  0.40440514  0.94729862    -0.42900
C325        C  0.09701971  0.27762748  0.64376979     0.00700
C326        C  0.11285104  0.28700796  0.66834020    -0.11200
C327        C  0.11308834  0.31127126  0.68303128     0.02900
C328        C  0.09708209  0.32664554  0.67325652     0.00600
C329        C  0.08113763  0.31735187  0.64882916    -0.11100
C330        C  0.08084850  0.29304176  0.63406767     0.02800
H331        H  0.12569069  0.27577837  0.67600152     0.15800
H332        H  0.06886053  0.32919534  0.64121490     0.15800
C333        C  0.06379899  0.28472588  0.60915181     0.37400
C334        C  0.13159896  0.32118566  0.70723652     0.37300
N335        N  0.05010661  0.27822313  0.58919832    -0.42900
N336        N  0.14660217  0.32924536  0.72653139    -0.42900
C337        C  0.01920282  0.39791545  0.67358051     0.00700
C338        C  0.49014233  0.38474706  0.68729356    -0.11200
C339        C  0.46065664  0.37061440  0.67385397     0.02900
C340        C  0.45974134  0.36882945  0.64591876     0.00600
C341        C  0.48893295  0.38472577  0.63221308    -0.11100
C342        C  0.01842956  0.39921960  0.64567976     0.02800
H343        H  0.49035894  0.38404202  0.70872378     0.15800
H344        H  0.48881509  0.38411729  0.61079261     0.15800
C345        C  0.04728052  0.41247624  0.63021637     0.37400
C346        C  0.43188394  0.35627544  0.68947370     0.37300
N347        N  0.07039051  0.42303228  0.61781298    -0.42900
N348        N  0.40887001  0.34486559  0.70205561    -0.42900
C349        C  0.09317157  0.40355238  0.79940972     0.00700
C350        C  0.09968684  0.38187843  0.81254515    -0.11200
C351        C  0.09766448  0.37848199  0.84002061     0.02900
C352        C  0.08845319  0.39668578  0.85508682     0.00600
C353        C  0.08159152  0.41815581  0.84210561    -0.11100
C354        C  0.08423844  0.42204259  0.81454245     0.02800
H355        H  0.10662696  0.36752773  0.80130272     0.15800
H356        H  0.07457546  0.43227838  0.85358489     0.15800
C357        C  0.07697875  0.44463458  0.80247484     0.37400
C358        C  0.10398468  0.35517736  0.85205712     0.37300
N359        N  0.07114360  0.46285671  0.79303305    -0.42900
N360        N  0.10899942  0.33639635  0.86152628    -0.42900
C361        C  0.27583188  0.01441867  0.70524429     0.00700
C362        C  0.26235911  0.48445101  0.71782010    -0.11200
C363        C  0.22907323  0.46368981  0.71875070     0.02900
C364        C  0.20811314  0.47264933  0.70697362     0.00600
C365        C  0.22153128  0.50225501  0.69392570    -0.11100
C366        C  0.25486818  0.02286954  0.69266804     0.02800
H367        H  0.27788383  0.47749620  0.72759273     0.15800
H368        H  0.20592306  0.50928388  0.68441062     0.15800
C369        C  0.26672500  0.05238059  0.67802332     0.37400
C370        C  0.21724327  0.43388407  0.73294747     0.37300
N371        N  0.27636363  0.07601595  0.66625007    -0.42900
N372        N  0.20765220  0.40997941  0.74430137    -0.42900
C373        C  0.01984502  0.12518123  0.64231613     0.00700
C374        C  0.02180982  0.12365356  0.66998152    -0.11200
C375        C  0.49410980  0.10857637  0.68553505     0.02900
C376        C  0.46350339  0.09458327  0.67345779     0.00600
C377        C  0.46160130  0.09257919  0.64574630    -0.11100
C378        C  0.48929898  0.10760540  0.63017704     0.02800
H379        H  0.04499633  0.13604220  0.67969572     0.15800
H380        H  0.43837429  0.08123446  0.63608221     0.15800
C381        C  0.48545233  0.10561844  0.60180212     0.37400
C382        C  0.49793615  0.10871575  0.71387085     0.37300
N383        N  0.48244249  0.10402977  0.57905595    -0.42900
N384        N  0.50120107  0.10878713  0.73655772    -0.42900
C385        C  0.38481353  0.16631754  0.67124289     0.00700
C386        C  0.39092172  0.19341766  0.68566050    -0.11200
C387        C  0.39006197  0.21893752  0.67353125     0.02900
C388        C  0.38372245  0.21805973  0.64612658     0.00600
C389        C  0.37817451  0.19126936  0.63159304    -0.11100
C390        C  0.37808178  0.16531829  0.64384512     0.02800
H391        H  0.39594577  0.19456859  0.70668827     0.15800
H392        H  0.37272695  0.19004885  0.61063634     0.15800
C393        C  0.36941337  0.13756237  0.62788433     0.37400
C394        C  0.39581736  0.24558482  0.68983593     0.37300
N395        N  0.36213119  0.11523554  0.61511370    -0.42900
N396        N  0.40023248  0.26675475  0.70305301    -0.42900
C397        C  0.47129772  0.21519896  0.94775259     0.00700
C398        C  0.45868751  0.23564645  0.94813743    -0.11200
C399        C  0.97854953  0.26901887  0.94757440     0.02900
C400        C  0.01216918  0.28298008  0.94725610     0.00600
C401        C  0.52479502  0.26252656  0.94725608    -0.11100
C402        C  0.50491168  0.22914665  0.94719384     0.02800
H403        H  0.43298519  0.22556554  0.94826864     0.15800
H404        H  0.05048759  0.27260458  0.94674773     0.15800
C405        C  0.51988315  0.21009815  0.94551192     0.37400
C406        C  0.96346154  0.28801450  0.94625135     0.37300
N407        N  0.53197982  0.19493968  0.94392943    -0.42900
N408        N  0.95115958  0.30304078  0.94495214    -0.42900
C409        C  0.37227624  0.46936219  0.00561211     0.00700
C410        C  0.36973875  0.46912774  0.97794445    -0.11200
C411        C  0.38231657  0.49769998  0.96346467     0.02900
C412        C  0.39776346  0.02752222  0.97679811     0.00600
C413        C  0.40410454  0.02779204  0.00400576    -0.11100
C414        C  0.39183647  0.49901881  0.01832548     0.02800
H415        H  0.35572178  0.44661224  0.96768263     0.15800
H416        H  0.41685683  0.05037361  0.01436397     0.15800
C417        C  0.39860807  0.50071827  0.04631175     0.37400
C418        C  0.37772718  0.49563989  0.93516294     0.37300
N419        N  0.40402364  0.00200282  0.06886568    -0.42900
N420        N  0.37409559  0.49400551  0.91247664    -0.42900
C421        C  0.31906969  0.09983075  0.98530826     0.00700
C422        C  0.28983687  0.08835114  0.97175958    -0.11200
C423        C  0.26345034  0.08709613  0.98385480     0.02900
C424        C  0.26586114  0.09741296  0.01021792     0.00600
C425        C  0.29435616  0.10704752  0.02433445    -0.11100
C426        C  0.32090022  0.10856698  0.01219921     0.02800
H427        H  0.28765626  0.08088914  0.95134326     0.15800
H428        H  0.29644931  0.11484771  0.04464850     0.15800
C429        C  0.34983574  0.12031109  0.02773633     0.37400
C430        C  0.23419934  0.07496789  0.96868463     0.37300
N431        N  0.37299053  0.12985409  0.04025155    -0.42900
N432        N  0.21077459  0.06521509  0.95651193    -0.42900
C433        C  0.39635315  0.10569511  0.85466224     0.00700
C434        C  0.41218980  0.09233568  0.84164715    -0.11200
C435        C  0.41022072  0.08854836  0.81411580     0.02900
C436        C  0.39218292  0.09836717  0.79884901     0.00600
C437        C  0.37731191  0.11278907  0.81172016    -0.11100
C438        C  0.37911407  0.11643629  0.83925145     0.02800
H439        H  0.42590178  0.08439215  0.85305004     0.15800
H440        H  0.36372448  0.12084537  0.80026043     0.15800
C441        C  0.36349461  0.13186666  0.85090365     0.37400
C442        C  0.42770143  0.07531441  0.80206451     0.37300
N443        N  0.35096858  0.14429389  0.86010569    -0.42900
N444        N  0.44178854  0.06480405  0.79237905    -0.42900
O445        O  0.34534197  0.59694054  0.94608758    -0.57000
C446        C  0.39834305  0.60790779  0.88405690     0.75600
O447        O  0.45729482  0.65936573  0.94692684    -0.58100
C448        C  0.34719926  0.60340093  0.97047242     0.75600
C449        C  0.40246121  0.55718970  0.96362564     0.78000
Cd450      Cd  0.40182443  0.61228995  0.94130326     1.37500
O451        O  0.37822062  0.61087203  0.89752583    -0.57000
O452        O  0.38565479  0.55581821  0.94389053    -0.55800
C453        C  0.44861051  0.67995546  0.94671477     0.78000
O454        O  0.42141565  0.58498180  0.97249387    -0.58200
O455        O  0.41996485  0.60644054  0.89712932    -0.56600
O456        O  0.37432849  0.61364396  0.98118148    -0.56600
O457        O  0.41882781  0.66885009  0.94496049    -0.55800
O458        O  0.38623698  0.63871350  0.71062886    -0.57000
C459        C  0.38827535  0.59380529  0.76975331     0.75600
O460        O  0.32322189  0.56630851  0.70216866    -0.58100
C461        C  0.38440294  0.63921423  0.68565356     0.75600
C462        C  0.43421037  0.58713664  0.68858379     0.78000
Cd463      Cd  0.37906943  0.58498378  0.71323440     1.37500
O464        O  0.38212469  0.61141556  0.75530234    -0.57000
O465        O  0.43606310  0.60090402  0.71012810    -0.55800
C466        C  0.31116459  0.53698557  0.70714125     0.78000
O467        O  0.40614934  0.56929984  0.67954671    -0.58200
O468        O  0.39013062  0.57189439  0.75803145    -0.56600
O469        O  0.38147856  0.61512657  0.67377493    -0.56600
O470        O  0.33090184  0.52858953  0.71451290    -0.55800
O471        O  0.09388670  0.88264844  0.75710416    -0.57000
C472        C  0.09832842  0.85351040  0.68740254     0.75600
O473        O  0.07674613  0.92437609  0.68060224    -0.58100
C474        C  0.09600550  0.90565958  0.77023636     0.75600
C475        C  0.17259758  0.95158248  0.70820583     0.78000
Cd476      Cd  0.10408794  0.90779370  0.71375643     1.37500
O477        O  0.09779278  0.85453648  0.71236986    -0.57000
O478        O  0.15980987  0.92200473  0.71250994    -0.55800
C479        C  0.04868710  0.90462847  0.68852966     0.78000
O480        O  0.15336480  0.96188073  0.70538486    -0.58200
O481        O  0.10043859  0.87709092  0.67482297    -0.56600
O482        O  0.10117307  0.93014294  0.75705695    -0.56600
O483        O  0.04685338  0.88927200  0.70938848    -0.55800
O484        O  0.10671257  0.89131524  0.89796966    -0.57000
C485        C  0.13656863  0.89251594  0.96865472     0.75600
O486        O  0.06355560  0.91388708  0.97197986    -0.58100
C487        C  0.08615756  0.89379740  0.88428060     0.75600
C488        C  0.03490350  0.81830980  0.94597878     0.78000
Cd489      Cd  0.08185404  0.88619930  0.94090000     1.37500
O490        O  0.13643642  0.89624520  0.94387438    -0.57000
O491        O  0.02633542  0.83895786  0.94688827    -0.55800
C492        C  0.08348735  0.94174724  0.96365815     0.78000
O493        O  0.06454869  0.82940149  0.94343557    -0.58200
O494        O  0.11125295  0.88624311  0.98059482    -0.56600
O495        O  0.06352612  0.89346847  0.89677642    -0.56600
O496        O  0.10041388  0.94311625  0.94435038    -0.55800
O497        O  0.34268550  0.74244322  0.37784819    -0.57000
C498        C  0.39563939  0.79407870  0.43512381     0.75600
O499        O  0.45132769  0.79698151  0.37021347    -0.58100
C500        C  0.33996337  0.74069338  0.35292940     0.75600
C501        C  0.39424234  0.84317698  0.35560926     0.78000
Cd502      Cd  0.39661862  0.78951305  0.37845938     1.37500
O503        O  0.37377146  0.77096096  0.42225031    -0.57000
O504        O  0.37978373  0.82909953  0.37654929    -0.55800
C505        C  0.44141196  0.76723916  0.37076585     0.78000
O506        O  0.41229991  0.83411018  0.34594639    -0.58200
O507        O  0.41824128  0.81598652  0.42176453    -0.56600
O508        O  0.36327559  0.76204031  0.33988964    -0.56600
O509        O  0.41174427  0.74924307  0.37402339    -0.55800
O510        O  0.38419634  0.77449736  0.56302405    -0.57000
C511        C  0.38141342  0.74365255  0.63231724     0.75600
O512        O  0.40232023  0.83269488  0.64106603    -0.58100
C513        C  0.38531345  0.79672241  0.54897019     0.75600
C514        C  0.30756159  0.77212659  0.60861087     0.78000
Cd515      Cd  0.37527476  0.79248823  0.60530683     1.37500
O516        O  0.38516542  0.74770970  0.60757239    -0.57000
O517        O  0.31773895  0.75289599  0.60798972    -0.55800
C518        C  0.42997253  0.84603843  0.63101196     0.78000
O519        O  0.32897353  0.80152186  0.60842975    -0.58200
O520        O  0.37495898  0.76230500  0.64435263    -0.56600
O521        O  0.38201518  0.81753380  0.56110268    -0.56600
O522        O  0.43132665  0.83715262  0.60792075    -0.55800
O523        O  0.21224840  0.61192364  0.09048884    -0.57000
C524        C  0.24047644  0.60090165  0.02261198     0.75600
O525        O  0.15279072  0.58605636  0.00997010    -0.58100
C526        C  0.18662043  0.60481586  0.10227189     0.75600
C527        C  0.21672628  0.68049626  0.03962668     0.78000
Cd528      Cd  0.19332488  0.61237215  0.04591023     1.37500
O529        O  0.23754870  0.60087325  0.04744164    -0.57000
O530        O  0.23460318  0.66890163  0.04237860    -0.55800
C531        C  0.13877985  0.55852463  0.02061159     0.78000
O532        O  0.18692472  0.66029392  0.03878156    -0.58200
O533        O  0.22126642  0.60553920  0.00895461    -0.56600
O534        O  0.16322343  0.60052240  0.08792166    -0.56600
O535        O  0.14786505  0.55692183  0.04380207    -0.55800
O536        O  0.20380501  0.60734696  0.23012929    -0.57000
C537        C  0.23493674  0.63267103  0.30038397     0.75600
O538        O  0.14341554  0.56335237  0.30632603    -0.58100
C539        C  0.18238743  0.58575184  0.21571288     0.75600
C540        C  0.21103327  0.53494734  0.27589471     0.78000
Cd541      Cd  0.18661470  0.57881657  0.27215899     1.37500
O542        O  0.23196735  0.63336817  0.27552871    -0.57000
O543        O  0.22837738  0.56486792  0.27362164    -0.55800
C544        C  0.13414515  0.58164903  0.29702162     0.78000
O545        O  0.18108973  0.52428897  0.27699984    -0.58200
O546        O  0.21527602  0.60694675  0.31192765    -0.56600
O547        O  0.16227168  0.56028142  0.22753374    -0.56600
O548        O  0.14647711  0.59510990  0.27531189    -0.55800
O549        O  0.09742751  0.71885211  0.41786434    -0.57000
C550        C  0.13020621  0.74555354  0.34877225     0.75600
O551        O  0.05957013  0.65154644  0.34319835    -0.58100
C552        C  0.07673252  0.69568389  0.43150045     0.75600
C553        C  0.02846546  0.71778146  0.36692703     0.78000
Cd554      Cd  0.07439397  0.69666100  0.37468442     1.37500
O555        O  0.12918412  0.74175051  0.37360175    -0.57000
O556        O  0.01889427  0.68834726  0.37044206    -0.55800
C557        C  0.07808397  0.64305413  0.35344883     0.78000
O558        O  0.05835996  0.73600582  0.36556479    -0.58200
O559        O  0.10540428  0.72599934  0.33595942    -0.56600
O560        O  0.05466393  0.67249244  0.41871950    -0.56600
O561        O  0.09212506  0.65724770  0.37451079    -0.55800
O562        O  0.09515047  0.72347334  0.55926806    -0.57000
C563        C  0.09842901  0.75207926  0.62913596     0.75600
O564        O  0.07659350  0.66260916  0.63771877    -0.58100
C565        C  0.09226889  0.70067127  0.54535327     0.75600
C566        C  0.16990902  0.72245536  0.60457615     0.78000
Cd567      Cd  0.10260226  0.70315236  0.60153933     1.37500
O568        O  0.08718384  0.74380407  0.60603156    -0.57000
O569        O  0.16006008  0.74118214  0.59833346    -0.55800
C570        C  0.04886031  0.64868150  0.62746199     0.78000
O571        O  0.14827555  0.69370843  0.60903358    -0.58200
O572        O  0.11139804  0.73751188  0.63915634    -0.56600
O573        O  0.09376454  0.67852917  0.55751323    -0.56600
O574        O  0.04696494  0.65804389  0.60450393    -0.55800
O575        O  0.27975325  0.88019294  0.22822634    -0.57000
C576        C  0.23665863  0.85036023  0.29411845     0.75600
O577        O  0.32701119  0.91981536  0.30722879    -0.58100
C578        C  0.29791180  0.90510487  0.21500705     0.75600
C579        C  0.26408040  0.95077416  0.27440850     0.78000
Cd580      Cd  0.28769301  0.90677675  0.27031854     1.37500
O581        O  0.23943944  0.85312184  0.26926097    -0.57000
O582        O  0.24704485  0.92189890  0.26767925    -0.55800
C583        C  0.34012217  0.90561976  0.29709502     0.78000
O584        O  0.29333559  0.96031840  0.27920519    -0.58200
O585        O  0.25777293  0.87355765  0.30742361    -0.56600
O586        O  0.31200988  0.93124697  0.22758797    -0.56600
O587        O  0.33135841  0.89550729  0.27384535    -0.55800
O588        O  0.28779036  0.90877846  0.08701911    -0.57000
C589        C  0.24420932  0.89317672  0.01991027     0.75600
O590        O  0.33426298  0.91273603  0.00969666    -0.58100
C591        C  0.30095398  0.89728752  0.10147254     0.75600
C592        C  0.26912298  0.81845983  0.04186420     0.78000
Cd593      Cd  0.29382127  0.88687118  0.04553649     1.37500
O594        O  0.24725365  0.89422525  0.04481495    -0.57000
O595        O  0.25207336  0.83055416  0.04655581    -0.55800
C596        C  0.34934032  0.93993201  0.02056371     0.78000
O597        O  0.29869098  0.83834633  0.03833815    -0.58200
O598        O  0.26433417  0.88949585  0.00720669    -0.56600
O599        O  0.31150871  0.88154570  0.08992124    -0.56600
O600        O  0.34122668  0.94116261  0.04394280    -0.55800
C601        C  0.30280738  0.90092257  0.13049682     0.00700
C602        C  0.29905057  0.87527538  0.14613666    -0.11200
C603        C  0.29801917  0.87630319  0.17369657     0.02900
C604        C  0.30145642  0.90377634  0.18615304     0.00600
C605        C  0.30658131  0.92997106  0.17054973    -0.11100
C606        C  0.30689118  0.92864308  0.14294048     0.02800
H607        H  0.29594703  0.85390838  0.13675982     0.15800
H608        H  0.30930975  0.95119504  0.17990519     0.15800
C609        C  0.31181144  0.95620010  0.12797535     0.37400
C610        C  0.29368150  0.84890935  0.18860984     0.37300
N611        N  0.31577055  0.97837845  0.11611629    -0.42900
N612        N  0.29017369  0.82692136  0.20051050    -0.42900
C613        C  0.15854400  0.77164055  0.33522955     0.00700
C614        C  0.16015587  0.77091784  0.30754175    -0.11200
C615        C  0.18551346  0.79572575  0.29356965     0.02900
C616        C  0.21004706  0.82215427  0.30741431     0.00600
C617        C  0.20875078  0.82243173  0.33511820    -0.11100
C618        C  0.18345459  0.79774563  0.34904842     0.02800
H619        H  0.14136500  0.75095709  0.29664133     0.15800
H620        H  0.22734412  0.84243155  0.34612247     0.15800
C621        C  0.18346919  0.80078422  0.37740623     0.37400
C622        C  0.18530055  0.79326286  0.26514339     0.37300
N623        N  0.18369286  0.80350328  0.40010804    -0.42900
N624        N  0.18495304  0.79108881  0.24237577    -0.42900
C625        C  0.07874570  0.69622165  0.46080661     0.00700
C626        C  0.09698365  0.72590779  0.47336667    -0.11200
C627        C  0.10121746  0.72801119  0.50081205     0.02900
C628        C  0.08737784  0.69987908  0.51637313     0.00600
C629        C  0.06877734  0.67022224  0.50393743    -0.11100
C630        C  0.06404010  0.66815249  0.47649015     0.02800
H631        H  0.10824988  0.74769828  0.46166858     0.15800
H632        H  0.05779667  0.64851537  0.51574043     0.15800
C633        C  0.04476019  0.63682486  0.46507608     0.37400
C634        C  0.12111688  0.75930154  0.51218530     0.37300
N635        N  0.02921708  0.61165487  0.45603937    -0.42900
N636        N  0.13712781  0.78445993  0.52111485    -0.42900
C637        C  0.22522851  0.51383757  0.27675089     0.00700
C638        C  0.20485087  0.98063761  0.27791315    -0.11200
C639        C  0.21686751  0.95979003  0.27765574     0.02900
C640        C  0.25029579  0.97203214  0.27613663     0.00600
C641        C  0.27076106  0.50519505  0.27547639    -0.11100
C642        C  0.25877595  0.52607627  0.27570702     0.02800
H643        H  0.17919814  0.97069399  0.27887557     0.15800
H644        H  0.29639032  0.51502657  0.27427181     0.15800
C645        C  0.28182901  0.55991450  0.27465171     0.37400
C646        C  0.19413765  0.92591893  0.27951833     0.37300
N647        N  0.30046747  0.58698684  0.27380286    -0.42900
N648        N  0.17598269  0.89877152  0.28106230    -0.42900
C649        C  0.11252388  0.58963362  0.31159340     0.00700
C650        C  0.11366574  0.59037942  0.33936644    -0.11200
C651        C  0.10050933  0.60554138  0.35373634     0.02900
C652        C  0.08539950  0.62009800  0.34031434     0.00600
C653        C  0.08138776  0.61634564  0.31279841    -0.11100
C654        C  0.09488647  0.60159848  0.29844500     0.02800
H655        H  0.12676907  0.58104049  0.34984985     0.15800
H656        H  0.06948454  0.62685275  0.30214432     0.15800
C657        C  0.09116074  0.60013015  0.27007247     0.37400
C658        C  0.10377206  0.60658160  0.38216377     0.37300
N659        N  0.08816282  0.59903242  0.24732866    -0.42900
N660        N  0.10638516  0.60733884  0.40494290    -0.42900
C661        C  0.25506618  0.78301324  0.04065583     0.00700
C662        C  0.27478462  0.77081883  0.03397120    -0.11200
C663        C  0.26282637  0.73776428  0.03299056     0.02900
C664        C  0.23016007  0.71578300  0.03850465     0.00600
C665        C  0.21033802  0.72791671  0.04479359    -0.11100
C666        C  0.22237096  0.76093329  0.04621899     0.02800
H667        H  0.29981090  0.78716505  0.02962437     0.15800
H668        H  0.18541452  0.71150296  0.04945518     0.15800
C669        C  0.20050076  0.77106572  0.05428604     0.37400
C670        C  0.28478956  0.72728672  0.02608390     0.37300
N671        N  0.18292069  0.77904714  0.06091073    -0.42900
N672        N  0.30240597  0.71888711  0.02062778    -0.42900
C673        C  0.18176307  0.59056563  0.18661410     0.00700
C674        C  0.20843638  0.61708983  0.17505605    -0.11200
C675        C  0.20996351  0.62260532  0.14779466     0.02900
C676        C  0.18442009  0.60141883  0.13132913     0.00600
C677        C  0.15719695  0.57564529  0.14273848    -0.11100
C678        C  0.15573654  0.56985649  0.17006906     0.02800
H679        H  0.22847456  0.63356840  0.18729920     0.15800
H680        H  0.13743215  0.55936482  0.13015507     0.15800
C681        C  0.12729398  0.54240025  0.18030718     0.37400
C682        C  0.23762237  0.65076670  0.13727360     0.37300
N683        N  0.10441237  0.52026935  0.18830045    -0.42900
N684        N  0.25961725  0.67337571  0.12875216    -0.42900
C685        C  0.27244024  0.76019001  0.60896884     0.00700
C686        C  0.25085338  0.72705938  0.61151570    -0.11200
C687        C  0.21757114  0.71410027  0.61043583     0.02900
C688        C  0.20495200  0.73439262  0.60659346     0.00600
C689        C  0.22652421  0.76753729  0.60452583    -0.11100
C690        C  0.25975012  0.78050685  0.60576018     0.02800
H691        H  0.25997148  0.71096896  0.61413150     0.15800
H692        H  0.21744290  0.78365035  0.60183132     0.15800
C693        C  0.27999044  0.81473172  0.60323895     0.37400
C694        C  0.19716990  0.67987693  0.61287803     0.37300
N695        N  0.29608665  0.84218604  0.60123940    -0.42900
N696        N  0.18082255  0.65244476  0.61484163    -0.42900
C697        C  0.00622037  0.73055661  0.36559793     0.00700
C698        C  0.47367028  0.70983429  0.37093090    -0.11200
C699        C  0.45219324  0.72099564  0.37225542     0.02900
C700        C  0.46305230  0.75392178  0.36822375     0.00600
C701        C  0.49546585  0.77455331  0.36224752    -0.11100
C702        C  0.01693873  0.76333116  0.36080656     0.02800
H703        H  0.46492765  0.68472042  0.37467465     0.15800
H704        H  0.50424035  0.79973420  0.35884264     0.15800
C705        C  0.04981288  0.78630147  0.35445580     0.37400
C706        C  0.41930516  0.69786890  0.37842624     0.37300
N707        N  0.07612305  0.80477928  0.34933636    -0.42900
N708        N  0.39297105  0.67927331  0.38335899    -0.42900
C709        C  0.36185990  0.89807332  0.31237898     0.00700
C710        C  0.35951498  0.89620764  0.34004575    -0.11200
C711        C  0.37247049  0.88095337  0.35492767     0.02900
C712        C  0.38797632  0.86685244  0.34209128     0.00600
C713        C  0.39352623  0.87203065  0.31480996    -0.11100
C714        C  0.38083637  0.88758741  0.29997212     0.02800
H715        H  0.34577340  0.90486106  0.35001402     0.15800
H716        H  0.40618340  0.86226318  0.30469994     0.15800
C717        C  0.38705990  0.89177865  0.27195372     0.37400
C718        C  0.36873440  0.87951005  0.38326466     0.37300
N719        N  0.39218234  0.89534982  0.24952360    -0.42900
N720        N  0.36586192  0.87854702  0.40597988    -0.42900
C721        C  0.31156488  0.71423165  0.33987164     0.00700
C722        C  0.29445156  0.68500504  0.35338818    -0.11200
C723        C  0.26905687  0.65825713  0.34127335     0.02900
C724        C  0.26029433  0.66051104  0.31492715     0.00600
C725        C  0.27670369  0.69011424  0.30178149    -0.11100
C726        C  0.30203207  0.71686289  0.31396451     0.02800
H727        H  0.30154467  0.68272610  0.37331870     0.15800
H728        H  0.26981870  0.69244114  0.28179228     0.15800
C729        C  0.31720333  0.74675057  0.29956554     0.37400
C730        C  0.25333142  0.62878698  0.35624544     0.37300
N731        N  0.32915265  0.77064789  0.28795508    -0.42900
N732        N  0.24079237  0.60526186  0.36835405    -0.42900
C733        C  0.39454300  0.79513604  0.46428591     0.00700
C734        C  0.40313635  0.82407299  0.47680652    -0.11200
C735        C  0.40038607  0.82539903  0.50430261     0.02900
C736        C  0.38947628  0.79741006  0.51985049     0.00600
C737        C  0.38193005  0.76876073  0.50724206    -0.11100
C738        C  0.38410698  0.76734339  0.47981712     0.02800
H739        H  0.41127295  0.84554817  0.46500504     0.15800
H740        H  0.37374512  0.74710448  0.51880210     0.15800
C741        C  0.37622930  0.73715140  0.46821049     0.37400
C742        C  0.40926242  0.85583721  0.51590460     0.37300
N743        N  0.36995646  0.71297297  0.45892721    -0.42900
N744        N  0.41635628  0.88026951  0.52513531    -0.42900
C745        C  0.08900023  0.97147590  0.97680690     0.00700
C746        C  0.08303365  0.97089300  0.00398327    -0.11200
C747        C  0.09612412  0.49942660  0.01839505     0.02900
C748        C  0.11583904  0.52919360  0.00573453     0.00600
C749        C  0.11797877  0.52978847  0.97806753    -0.11100
C750        C  0.10463305  0.00139601  0.96365847     0.02800
H751        H  0.07003873  0.94816934  0.01426749     0.15800
H752        H  0.13202295  0.55241100  0.96783293     0.15800
C753        C  0.10842615  0.00374137  0.93532390     0.37400
C754        C  0.08927170  0.49740732  0.04626757     0.37300
N755        N  0.11132650  0.00556789  0.91260319    -0.42900
N756        N  0.08344447  0.49577321  0.06853904    -0.42900
C757        C  0.16472790  0.89472300  0.98250695     0.00700
C758        C  0.19017694  0.89798677  0.96718399    -0.11200
C759        C  0.21658152  0.89832335  0.97879704     0.02900
C760        C  0.21799725  0.89529750  0.00654366     0.00600
C761        C  0.19309531  0.89315864  0.02196428    -0.11100
C762        C  0.16665054  0.89281558  0.01032571     0.02800
H763        H  0.18934131  0.89983986  0.94584892     0.15800
H764        H  0.19390238  0.89110845  0.04328228     0.15800
C765        C  0.14198265  0.89029361  0.02759168     0.37400
C766        C  0.24169907  0.90189974  0.96152603     0.37300
N767        N  0.12228853  0.88826520  0.04152320    -0.42900
N768        N  0.26172895  0.90479669  0.94756178    -0.42900
C769        C  0.09700060  0.77748938  0.64390472     0.00700
C770        C  0.11288937  0.78688896  0.66845396    -0.11200
C771        C  0.11317449  0.81117643  0.68314881     0.02900
C772        C  0.09715431  0.82654690  0.67340249     0.00600
C773        C  0.08115031  0.81723235  0.64900327    -0.11100
C774        C  0.08081902  0.79290834  0.63423501     0.02800
H775        H  0.12573404  0.77565576  0.67609562     0.15800
H776        H  0.06887227  0.82908386  0.64140902     0.15800
C777        C  0.06377354  0.78463674  0.60931780     0.37400
C778        C  0.13175748  0.82113340  0.70731656     0.37300
N779        N  0.05008983  0.77817683  0.58936091    -0.42900
N780        N  0.14682232  0.82923474  0.72657867    -0.42900
C781        C  0.01919048  0.89760485  0.67361085     0.00700
C782        C  0.49011838  0.88438422  0.68731197    -0.11200
C783        C  0.46063976  0.87025329  0.67386118     0.02900
C784        C  0.45973639  0.86850448  0.64592385     0.00600
C785        C  0.48893713  0.88440531  0.63222993    -0.11100
C786        C  0.01842863  0.89892262  0.64570922     0.02800
H787        H  0.49032210  0.88366206  0.70874201     0.15800
H788        H  0.48882975  0.88381802  0.61080906     0.15800
C789        C  0.04729691  0.91227184  0.63025960     0.37400
C790        C  0.43185966  0.85589621  0.68947155     0.37300
N791        N  0.07042706  0.92291720  0.61787391    -0.42900
N792        N  0.40883898  0.84447630  0.70204515    -0.42900
C793        C  0.09331847  0.90362589  0.79949830     0.00700
C794        C  0.09981733  0.88194813  0.81264861    -0.11200
C795        C  0.09775261  0.87853701  0.84012231     0.02900
C796        C  0.08854347  0.89675179  0.85517570     0.00600
C797        C  0.08171165  0.91823593  0.84218088    -0.11100
C798        C  0.08437743  0.92211966  0.81461755     0.02800
H799        H  0.10675456  0.86758740  0.80141757     0.15800
H800        H  0.07469043  0.93236237  0.85364893     0.15800
C801        C  0.07710933  0.94469850  0.80253583     0.37400
C802        C  0.10399289  0.85518118  0.85216571     0.37300
N803        N  0.07126080  0.96290740  0.79308622    -0.42900
N804        N  0.10893194  0.83635070  0.86163904    -0.42900
C805        C  0.27579846  0.51439357  0.70531404     0.00700
C806        C  0.26242634  0.98449733  0.71777666    -0.11200
C807        C  0.22914836  0.96370745  0.71871075     0.02900
C808        C  0.20815864  0.97263155  0.70693488     0.00600
C809        C  0.22154800  0.00220941  0.69384067    -0.11100
C810        C  0.25485396  0.52290148  0.69277926     0.02800
H811        H  0.27797266  0.97757866  0.72756125     0.15800
H812        H  0.20592187  0.00920064  0.68430464     0.15800
C813        C  0.26672424  0.55247693  0.67822927     0.37400
C814        C  0.21736448  0.93389329  0.73288395     0.37300
N815        N  0.27636609  0.57616920  0.66654005    -0.42900
N816        N  0.20781400  0.90997559  0.74420902    -0.42900
C817        C  0.01981108  0.62502748  0.64238161     0.00700
C818        C  0.02178934  0.62355379  0.67005044    -0.11200
C819        C  0.49409793  0.60848670  0.68561345     0.02900
C820        C  0.46348473  0.59443530  0.67354231     0.00600
C821        C  0.46157162  0.59238290  0.64583387    -0.11100
C822        C  0.48926031  0.60741141  0.63025474     0.02800
H823        H  0.04497818  0.63598269  0.67975783     0.15800
H824        H  0.43833978  0.58100365  0.63617681     0.15800
C825        C  0.48539203  0.60539612  0.60188221     0.37400
C826        C  0.49793886  0.60871654  0.71395253     0.37300
N827        N  0.48235590  0.60378389  0.57913844    -0.42900
N828        N  0.50120778  0.60886463  0.73664310    -0.42900
C829        C  0.38498217  0.66627919  0.67131656     0.00700
C830        C  0.39068470  0.69320901  0.68578677    -0.11200
C831        C  0.38974626  0.71868526  0.67365514     0.02900
C832        C  0.38369389  0.71792170  0.64620146     0.00600
C833        C  0.37858432  0.69131457  0.63161913    -0.11100
C834        C  0.37863245  0.66543008  0.64385739     0.02800
H835        H  0.39544418  0.69425371  0.70685687     0.15800
H836        H  0.37340986  0.69018889  0.61061477     0.15800
C837        C  0.37056227  0.63790509  0.62778865     0.37400
C838        C  0.39511372  0.74515684  0.69001840     0.37300
N839        N  0.36378230  0.61576607  0.61492619    -0.42900
N840        N  0.39922655  0.76618441  0.70328441    -0.42900
C841        C  0.47137338  0.71522524  0.94789073     0.00700
C842        C  0.45874054  0.73565029  0.94838428    -0.11200
C843        C  0.97857936  0.76902738  0.94783041     0.02900
C844        C  0.01220098  0.78301557  0.94740918     0.00600
C845        C  0.52484902  0.76258213  0.94731697    -0.11100
C846        C  0.50498713  0.72919987  0.94724538     0.02800
H847        H  0.43303645  0.72554810  0.94859380     0.15800
H848        H  0.05054118  0.77267784  0.94672991     0.15800
C849        C  0.51997621  0.71017732  0.94545093     0.37400
C850        C  0.96346092  0.78800008  0.94664845     0.37300
N851        N  0.53208477  0.69503873  0.94377755    -0.42900
N852        N  0.95113318  0.80300798  0.94546519    -0.42900
C853        C  0.37219770  0.96943851  0.00575908     0.00700
C854        C  0.36978411  0.96920627  0.97808171    -0.11200
C855        C  0.38243081  0.99778049  0.96359343     0.02900
C856        C  0.39778953  0.52744664  0.97666382     0.00600
C857        C  0.40424860  0.52771043  0.00384694    -0.11100
C858        C  0.39169871  0.99910068  0.01848485     0.02800
H859        H  0.35585599  0.94668868  0.96780458     0.15800
H860        H  0.41706869  0.55029172  0.01419829     0.15800
C861        C  0.39847192  0.00080490  0.04647066     0.37400
C862        C  0.37813105  0.99573388  0.93526345     0.37300
N863        N  0.40412995  0.50190409  0.06871180    -0.42900
N864        N  0.37476342  0.99411432  0.91255131    -0.42900
C865        C  0.31919985  0.59976291  0.98528362     0.00700
C866        C  0.28998915  0.58831984  0.97171069    -0.11200
C867        C  0.26359606  0.58706392  0.98378919     0.02900
C868        C  0.26597873  0.59734609  0.01016223     0.00600
C869        C  0.29445008  0.60693357  0.02430317    -0.11100
C870        C  0.32099986  0.60844956  0.01218363     0.02800
H871        H  0.28783330  0.58089363  0.95128550     0.15800
H872        H  0.29652388  0.61470259  0.04462491     0.15800
C873        C  0.34991277  0.62014647  0.02774387     0.37400
C874        C  0.23437862  0.57499104  0.96858070     0.37300
N875        N  0.37305042  0.62965065  0.04027607    -0.42900
N876        N  0.21098463  0.56528602  0.95637248    -0.42900
C877        C  0.39653975  0.60577287  0.85465886     0.00700
C878        C  0.41232588  0.59235343  0.84165367    -0.11200
C879        C  0.41035438  0.58855915  0.81412492     0.02900
C880        C  0.39234981  0.59841324  0.79885556     0.00600
C881        C  0.37754040  0.61290424  0.81171335    -0.11100
C882        C  0.37935450  0.61657065  0.83924068     0.02800
H883        H  0.42600328  0.58437300  0.85306125     0.15800
H884        H  0.36398562  0.62099397  0.80024711     0.15800
C885        C  0.36379496  0.63206926  0.85087800     0.37400
C886        C  0.42780809  0.57529357  0.80207676     0.37300
N887        N  0.35131488  0.64455224  0.86006194    -0.42900
N888        N  0.44187904  0.56476518  0.79239177    -0.42900
O889        O  0.84516636  0.09688181  0.94612207    -0.57000
C890        C  0.89816329  0.10783387  0.88406268     0.75600
O891        O  0.95717327  0.15932470  0.94687569    -0.58100
C892        C  0.84705616  0.10343906  0.97048802     0.75600
C893        C  0.90241759  0.05724090  0.96371863     0.78000
Cd894      Cd  0.90167989  0.11226683  0.94131379     1.37500
O895        O  0.87797646  0.11068373  0.89754192    -0.57000
O896        O  0.88577302  0.05583989  0.94385302    -0.55800
C897        C  0.94851333  0.17993246  0.94661533     0.78000
O898        O  0.92117495  0.08503226  0.97267628    -0.58200
O899        O  0.91985940  0.10648973  0.89712629    -0.56600
O900        O  0.87420771  0.11374698  0.98117237    -0.56600
O901        O  0.91873439  0.16884699  0.94485561    -0.55800
O902        O  0.88640811  0.13889854  0.71053643    -0.57000
C903        C  0.88815367  0.09380932  0.76973463     0.75600
O904        O  0.82319174  0.06638143  0.70218481    -0.58100
C905        C  0.88426794  0.13926498  0.68557603     0.75600
C906        C  0.93422944  0.08728473  0.68850315     0.78000
Cd907      Cd  0.87906236  0.08509081  0.71317906     1.37500
O908        O  0.88197290  0.11140818  0.75529632    -0.57000
O909        O  0.93608061  0.10103418  0.71005729    -0.55800
C910        C  0.81118454  0.03704808  0.70708361     0.78000
O911        O  0.90616881  0.06946235  0.67946234    -0.58200
O912        O  0.89009180  0.07196092  0.75798636    -0.56600
O913        O  0.88110433  0.11507142  0.67370977    -0.56600
O914        O  0.83095640  0.02867260  0.71439765    -0.55800
O915        O  0.59374287  0.38261782  0.75699472    -0.57000
C916        C  0.59821384  0.35358590  0.68726709     0.75600
O917        O  0.57675158  0.42459037  0.68056950    -0.58100
C918        C  0.59587149  0.40561783  0.77015058     0.75600
C919        C  0.67254934  0.45161291  0.70819994     0.78000
Cd920      Cd  0.60401658  0.40785841  0.71367680     1.37500
O921        O  0.59772331  0.35461692  0.71223633    -0.57000
O922        O  0.65973439  0.42200577  0.71236638    -0.55800
C923        C  0.54868074  0.40485539  0.68848181     0.78000
O924        O  0.65334055  0.46195171  0.70547003    -0.58200
O925        O  0.60026538  0.37714993  0.67470083    -0.56600
O926        O  0.60107266  0.43012830  0.75699795    -0.56600
O927        O  0.54681277  0.38942830  0.70930416    -0.55800
O928        O  0.60671620  0.39132867  0.89786141    -0.57000
C929        C  0.63657143  0.39237358  0.96852539     0.75600
O930        O  0.56372914  0.41388240  0.97196552    -0.58100
C931        C  0.58610635  0.39374177  0.88419205     0.75600
C932        C  0.53489303  0.31826758  0.94583525     0.78000
Cd933      Cd  0.58187410  0.38614489  0.94080451     1.37500
O934        O  0.63644461  0.39616322  0.94375319    -0.57000
O935        O  0.52636373  0.33893742  0.94689513    -0.55800
C936        C  0.58357493  0.44172937  0.96356363     0.78000
O937        O  0.56451639  0.32933082  0.94315966    -0.58200
O938        O  0.61125627  0.38607878  0.98047700    -0.56600
O939        O  0.56345467  0.39335095  0.89670659    -0.56600
O940        O  0.60038494  0.44307004  0.94417517    -0.55800
O941        O  0.84283996  0.24258725  0.37789678    -0.57000
C942        C  0.89579818  0.29425234  0.43511891     0.75600
O943        O  0.95145818  0.29701137  0.37036564    -0.58100
C944        C  0.84011644  0.24080297  0.35297764     0.75600
C945        C  0.89430472  0.34322110  0.35557027     0.78000
Cd946      Cd  0.89676740  0.28962792  0.37845765     1.37500
O947        O  0.87394656  0.27111093  0.42225524    -0.57000
O948        O  0.87973696  0.32903072  0.37643935    -0.55800
C949        C  0.94146596  0.26724975  0.37071930     0.78000
O950        O  0.91251559  0.33429882  0.34598296    -0.58200
O951        O  0.91839761  0.31615124  0.42175217    -0.56600
O952        O  0.86342869  0.26212274  0.33991821    -0.56600
O953        O  0.91176115  0.24927516  0.37378523    -0.55800
O954        O  0.88417286  0.27466505  0.56299950    -0.57000
C955        C  0.88152079  0.24384376  0.63226923     0.75600
O956        O  0.90234875  0.33286845  0.64109847    -0.58100
C957        C  0.88541751  0.29695891  0.54895971     0.75600
C958        C  0.80766975  0.27233675  0.60857045     0.78000
Cd959      Cd  0.87537513  0.29270503  0.60529710     1.37500
O960        O  0.88544939  0.24803108  0.60754778    -0.57000
O961        O  0.81784880  0.25311114  0.60788465    -0.55800
C962        C  0.92999203  0.34630580  0.63102228     0.78000
O963        O  0.82907714  0.30173298  0.60845198    -0.58200
O964        O  0.87493217  0.26239707  0.64430667    -0.56600
O965        O  0.88224887  0.31783974  0.56110958    -0.56600
O966        O  0.93136271  0.33746073  0.60791927    -0.55800
O967        O  0.71221627  0.11185563  0.09057053    -0.57000
C968        C  0.74035365  0.10094468  0.02268342     0.75600
O969        O  0.65265685  0.08603684  0.01009836    -0.58100
C970        C  0.68663906  0.10480575  0.10241314     0.75600
C971        C  0.71657018  0.18047582  0.03979994     0.78000
Cd972      Cd  0.69318748  0.11235177  0.04604278     1.37500
O973        O  0.73734542  0.10075656  0.04751339    -0.57000
O974        O  0.73444168  0.16886747  0.04248756    -0.55800
C975        C  0.63862934  0.05850711  0.02074129     0.78000
O976        O  0.68676246  0.16028600  0.03902854    -0.58200
O977        O  0.72121840  0.10571406  0.00904460    -0.56600
O978        O  0.66321848  0.10055722  0.08811604    -0.56600
O979        O  0.64769472  0.05690683  0.04393926    -0.55800
O980        O  0.70391948  0.10746683  0.23028331    -0.57000
C981        C  0.73505915  0.13274269  0.30051842     0.75600
O982        O  0.64345916  0.06329976  0.30645746    -0.58100
C983        C  0.68249885  0.08586935  0.21587154     0.75600
C984        C  0.71113287  0.03505658  0.27596941     0.78000
Cd985      Cd  0.68671864  0.07891501  0.27231046     1.37500
O986        O  0.73201389  0.13346577  0.27567395    -0.57000
O987        O  0.72849166  0.06498907  0.27382021    -0.55800
C988        C  0.63423652  0.08166316  0.29722056     0.78000
O989        O  0.68118451  0.02439095  0.27699929    -0.58200
O990        O  0.71546056  0.10699344  0.31206545    -0.56600
O991        O  0.66237841  0.06040434  0.22769441    -0.56600
O992        O  0.64665345  0.09526235  0.27557349    -0.55800
O993        O  0.59742914  0.21877115  0.41785447    -0.57000
C994        C  0.63013386  0.24546737  0.34870752     0.75600
O995        O  0.55948650  0.15138818  0.34328712    -0.58100
C996        C  0.57672866  0.19562319  0.43150381     0.75600
C997        C  0.52842751  0.21769655  0.36691814     0.78000
Cd998      Cd  0.57435865  0.19658764  0.37468855     1.37500
O999        O  0.62914464  0.24166256  0.37353533    -0.57000
O1000       O  0.51885043  0.18824499  0.37032460    -0.55800
C1001       C  0.57803998  0.14295045  0.35354529     0.78000
O1002       O  0.55832944  0.23594749  0.36570503    -0.58200
O1003       O  0.60531622  0.22591078  0.33591169    -0.56600
O1004       O  0.55462885  0.17244341  0.41873594    -0.56600
O1005       O  0.59213430  0.15722762  0.37456427    -0.55800
O1006       O  0.59516034  0.22347702  0.55923329    -0.57000
C1007       C  0.59847131  0.25221577  0.62902985     0.75600
O1008       O  0.57664665  0.16268786  0.63765804    -0.58100
C1009       C  0.59234404  0.20068646  0.54534202     0.75600
C1010       C  0.67001663  0.22263076  0.60462272     0.78000
Cd1011     Cd  0.60269864  0.20327793  0.60151652     1.37500
O1012       O  0.58770574  0.24427670  0.60576213    -0.57000
O1013       O  0.66015584  0.24139630  0.59856500    -0.55800
C1014       C  0.54890685  0.14883849  0.62741345     0.78000
O1015       O  0.64839119  0.19383198  0.60888867    -0.58200
O1016       O  0.61098930  0.23731540  0.63924382    -0.56600
O1017       O  0.59390755  0.17859292  0.55752015    -0.56600
O1018       O  0.54701930  0.15827718  0.60448418    -0.55800
O1019       O  0.77965530  0.38002903  0.22813619    -0.57000
C1020       C  0.73659453  0.35025354  0.29403692     0.75600
O1021       O  0.82697127  0.41975304  0.30712736    -0.58100
C1022       C  0.79777346  0.40493054  0.21489050     0.75600
C1023       C  0.76401152  0.45067666  0.27441146     0.78000
Cd1024     Cd  0.78762299  0.40666778  0.27022916     1.37500
O1025       O  0.73935624  0.35301941  0.26917809    -0.57000
O1026       O  0.74692899  0.42176164  0.26780472    -0.55800
C1027       C  0.84007383  0.40553736  0.29701705     0.78000
O1028       O  0.79330823  0.46025571  0.27903956    -0.58200
O1029       O  0.75772963  0.37344093  0.30733819    -0.56600
O1030       O  0.81183762  0.43108758  0.22745202    -0.56600
O1031       O  0.83129520  0.39538541  0.27377897    -0.55800
O1032       O  0.78786749  0.40869537  0.08691231    -0.57000
C1033       C  0.74431508  0.39316368  0.01972407     0.75600
O1034       O  0.83440899  0.41265541  0.00960682    -0.58100
C1035       C  0.80105217  0.39721177  0.10134970     0.75600
C1036       C  0.76911264  0.31846047  0.04178318     0.78000
Cd1037     Cd  0.79391049  0.38686483  0.04540389     1.37500
O1038       O  0.74734249  0.39420085  0.04462999    -0.57000
O1039       O  0.75212021  0.33060189  0.04653309    -0.55800
C1040       C  0.84943330  0.43987684  0.02043761     0.78000
O1041       O  0.79867074  0.33830265  0.03815433    -0.58200
O1042       O  0.76448349  0.38954348  0.00702817    -0.56600
O1043       O  0.81165786  0.38152667  0.08977862    -0.56600
O1044       O  0.84126795  0.44115360  0.04378868    -0.55800
C1045       C  0.80286218  0.40079709  0.13037779     0.00700
C1046       C  0.79891598  0.37507222  0.14601077    -0.11200
C1047       C  0.79779621  0.37606660  0.17357110     0.02900
C1048       C  0.80133139  0.40358158  0.18603337     0.00600
C1049       C  0.80664047  0.42984218  0.17043225    -0.11100
C1050       C  0.80705040  0.42855256  0.14282587     0.02800
H1051       H  0.79573147  0.35367745  0.13662564     0.15800
H1052       H  0.80945892  0.45110425  0.17978477     0.15800
C1053       C  0.81220725  0.45619349  0.12786082     0.37400
C1054       C  0.79327160  0.34859714  0.18847621     0.37300
N1055       N  0.81636455  0.47843610  0.11599222    -0.42900
N1056       N  0.78961519  0.32654990  0.20037141    -0.42900
C1057       C  0.65845952  0.27156020  0.33515655     0.00700
C1058       C  0.66015319  0.27075439  0.30748044    -0.11200
C1059       C  0.68552173  0.29555502  0.29350743     0.02900
C1060       C  0.70997536  0.32205931  0.30733932     0.00600
C1061       C  0.70858828  0.32242639  0.33503323    -0.11100
C1062       C  0.68328504  0.29774936  0.34896288     0.02800
H1063       H  0.64142627  0.25072858  0.29659317     0.15800
H1064       H  0.72711141  0.34249080  0.34602740     0.15800
C1065       C  0.68319273  0.30088728  0.37730303     0.37400
C1066       C  0.68541820  0.29299909  0.26509445     0.37300
N1067       N  0.68332861  0.30368427  0.39999030    -0.42900
N1068       N  0.68516517  0.29075678  0.24233729    -0.42900
C1069       C  0.57877370  0.19617592  0.46080885     0.00700
C1070       C  0.59713432  0.22586068  0.47334532    -0.11200
C1071       C  0.60138778  0.22797944  0.50078671     0.02900
C1072       C  0.58745469  0.19986455  0.51636623     0.00600
C1073       C  0.56874414  0.17020934  0.50395896    -0.11100
C1074       C  0.56397376  0.16812591  0.47651510     0.02800
H1075       H  0.60847367  0.24763853  0.46163341     0.15800
H1076       H  0.55768942  0.14851957  0.51578349     0.15800
C1077       C  0.54453571  0.13680336  0.46513355     0.37400
C1078       C  0.62139163  0.25926105  0.51214340     0.37300
N1079       N  0.52885870  0.11163547  0.45612908    -0.42900
N1080       N  0.63748191  0.28440871  0.52106642    -0.42900
C1081       C  0.72531391  0.01393870  0.27677228     0.00700
C1082       C  0.70478804  0.48054208  0.27809146    -0.11200
C1083       C  0.71681797  0.45970166  0.27787833     0.02900
C1084       C  0.75023247  0.47194105  0.27617456     0.00600
C1085       C  0.77084109  0.00528706  0.27561218    -0.11100
C1086       C  0.75886628  0.02617485  0.27586219     0.02800
H1087       H  0.67914323  0.47059727  0.27918257     0.15800
H1088       H  0.79647897  0.01511739  0.27453113     0.15800
C1089       C  0.78193446  0.06001597  0.27495805     0.37400
C1090       C  0.69412434  0.42584506  0.27999092     0.37300
N1091       N  0.80058600  0.08708990  0.27422313    -0.42900
N1092       N  0.67600076  0.39871003  0.28174324    -0.42900
C1093       C  0.61255223  0.08955477  0.31179069     0.00700
C1094       C  0.61372712  0.09035786  0.33956123    -0.11200
C1095       C  0.60053261  0.10550025  0.35390731     0.02900
C1096       C  0.58534729  0.11996546  0.34046043     0.00600
C1097       C  0.58128232  0.11612305  0.31295453    -0.11100
C1098       C  0.59482948  0.10140808  0.29862527     0.02800
H1099       H  0.62689961  0.08110245  0.35005366     0.15800
H1100       H  0.56931949  0.12655681  0.30228433     0.15800
C1101       C  0.59109304  0.09987973  0.27025342     0.37400
C1102       C  0.60385718  0.10664345  0.38233159     0.37300
N1103       N  0.58810207  0.09873396  0.24750878    -0.42900
N1104       N  0.60652118  0.10749312  0.40510792    -0.42900
C1105       C  0.75500649  0.28300920  0.04063879     0.00700
C1106       C  0.77467461  0.27076216  0.03394716    -0.11200
C1107       C  0.76268096  0.23770183  0.03303563     0.02900
C1108       C  0.73002960  0.21576470  0.03864050     0.00600
C1109       C  0.71025457  0.22795003  0.04494347    -0.11100
C1110       C  0.72232230  0.26097899  0.04628328     0.02800
H1111       H  0.79968990  0.28707229  0.02953640     0.15800
H1112       H  0.68534196  0.21157187  0.04966383     0.15800
C1113       C  0.70049738  0.27118291  0.05432041     0.37400
C1114       C  0.78459365  0.22717444  0.02609296     0.37300
N1115       N  0.68296101  0.27923441  0.06091267    -0.42900
N1116       N  0.80217007  0.21873615  0.02060500    -0.42900
C1117       C  0.68187904  0.09065977  0.18677242     0.00700
C1118       C  0.70866182  0.11702156  0.17516995    -0.11200
C1119       C  0.71018035  0.12249596  0.14790208     0.02900
C1120       C  0.68451582  0.10142866  0.13147632     0.00600
C1121       C  0.65719950  0.07581782  0.14293466    -0.11100
C1122       C  0.65574301  0.07007674  0.17027184     0.02800
H1123       H  0.72878795  0.13340044  0.18738432     0.15800
H1124       H  0.63733695  0.05963577  0.13038759     0.15800
C1125       C  0.62716612  0.04283180  0.18057564     0.37400
C1126       C  0.73796076  0.15050394  0.13733820     0.37300
N1127       N  0.60417581  0.02087942  0.18863290    -0.42900
N1128       N  0.76005586  0.17299064  0.12878300    -0.42900
C1129       C  0.77255143  0.26039297  0.60894258     0.00700
C1130       C  0.75097753  0.22726416  0.61151595    -0.11200
C1131       C  0.71769419  0.21429592  0.61047299     0.02900
C1132       C  0.70506174  0.23457742  0.60662855     0.00600
C1133       C  0.72662442  0.26772216  0.60453614    -0.11100
C1134       C  0.75985141  0.28070083  0.60574046     0.02800
H1135       H  0.76010685  0.21118357  0.61413818     0.15800
H1136       H  0.71753604  0.28382860  0.60183762     0.15800
C1137       C  0.78008023  0.31492379  0.60318885     0.37400
C1138       C  0.69730841  0.18007918  0.61299410     0.37300
N1139       N  0.79616240  0.34237697  0.60116474    -0.42900
N1140       N  0.68097846  0.15265258  0.61502923    -0.42900
C1141       C  0.50618223  0.23046700  0.36554975     0.00700
C1142       C  0.97364030  0.20977556  0.37093867    -0.11200
C1143       C  0.95218400  0.22096535  0.37225224     0.02900
C1144       C  0.96306474  0.25388822  0.36816936     0.00600
C1145       C  0.99546256  0.27447879  0.36212321    -0.11100
C1146       C  0.51690551  0.26322426  0.36066748     0.02800
H1147       H  0.96489370  0.18467203  0.37474167     0.15800
H1148       H  0.00424329  0.29965000  0.35865399     0.15800
C1149       C  0.54974537  0.28613172  0.35416106     0.37400
C1150       C  0.91930195  0.19788103  0.37848143     0.37300
N1151       N  0.57602555  0.30455485  0.34890598    -0.42900
N1152       N  0.89297191  0.17931627  0.38345591    -0.42900
C1153       C  0.86181709  0.39801444  0.31231943     0.00700
C1154       C  0.85939592  0.39608192  0.33998035    -0.11200
C1155       C  0.87236839  0.38085121  0.35487033     0.02900
C1156       C  0.88799505  0.36686412  0.34205044     0.00600
C1157       C  0.89360995  0.37210502  0.31478117    -0.11100
C1158       C  0.88087655  0.38761487  0.29993181     0.02800
H1159       H  0.84557323  0.40465236  0.34993298     0.15800
H1160       H  0.90634327  0.36240992  0.30468612     0.15800
C1161       C  0.88713477  0.39183830  0.27191977     0.37400
C1162       C  0.86850267  0.37928903  0.38319679     0.37300
N1163       N  0.89228322  0.39542773  0.24949408    -0.42900
N1164       N  0.86551864  0.37821552  0.40590319    -0.42900
C1165       C  0.81171494  0.21433031  0.33994127     0.00700
C1166       C  0.79461543  0.18511780  0.35347940    -0.11200
C1167       C  0.76922616  0.15835231  0.34138079     0.02900
C1168       C  0.76043110  0.16058759  0.31504173     0.00600
C1169       C  0.77682873  0.19017749  0.30187530    -0.11100
C1170       C  0.80217754  0.21693167  0.31402889     0.02800
H1171       H  0.80172744  0.18285920  0.37340845     0.15800
H1172       H  0.76993313  0.19248568  0.28188515     0.15800
C1173       C  0.81738933  0.24678405  0.29957959     0.37400
C1174       C  0.75355908  0.12888010  0.35635328     0.37300
N1175       N  0.82937989  0.27064775  0.28792129    -0.42900
N1176       N  0.74107622  0.10535056  0.36845892    -0.42900
C1177       C  0.89468557  0.29533810  0.46427855     0.00700
C1178       C  0.90323855  0.32427687  0.47677973    -0.11200
C1179       C  0.90045948  0.32561597  0.50427271     0.02900
C1180       C  0.88958168  0.29764271  0.51983822     0.00600
C1181       C  0.88206359  0.26899290  0.50724517    -0.11100
C1182       C  0.88425034  0.26755843  0.47982493     0.02800
H1183       H  0.91135443  0.34573861  0.46496431     0.15800
H1184       H  0.87388843  0.24734385  0.51881327     0.15800
C1185       C  0.87636314  0.23735445  0.46823780     0.37400
C1186       C  0.90923982  0.35604262  0.51584793     0.37300
N1187       N  0.87007369  0.21316437  0.45896878    -0.42900
N1188       N  0.91624578  0.38046199  0.52505791    -0.42900
C1189       C  0.58912365  0.47147464  0.97670915     0.00700
C1190       C  0.58318470  0.47090985  0.00388984    -0.11200
C1191       C  0.59598110  0.99940027  0.01850423     0.02900
C1192       C  0.61569745  0.02917763  0.00585587     0.00600
C1193       C  0.61786000  0.02978775  0.97818974    -0.11100
C1194       C  0.60472718  0.50138710  0.96354581     0.02800
H1195       H  0.57019361  0.44819412  0.01418564     0.15800
H1196       H  0.63191903  0.05241505  0.96796542     0.15800
C1197       C  0.60843279  0.50371623  0.93520331     0.37400
C1198       C  0.58917211  0.99735417  0.04638716     0.37300
N1199       N  0.61125312  0.50553466  0.91247546    -0.42900
N1200       N  0.58339304  0.99569668  0.06867049    -0.42900
C1201       C  0.66473127  0.39455575  0.98235503     0.00700
C1202       C  0.69015095  0.39778429  0.96701103    -0.11200
C1203       C  0.71657747  0.39814446  0.97860410     0.02900
C1204       C  0.71806317  0.39521632  0.00635659     0.00600
C1205       C  0.69317312  0.39308069  0.02179290    -0.11100
C1206       C  0.66669055  0.39267657  0.01017232     0.02800
H1207       H  0.68927074  0.39958314  0.94567378     0.15800
H1208       H  0.69401546  0.39107349  0.04311249     0.15800
C1209       C  0.64201726  0.39010760  0.02745693     0.37400
C1210       C  0.74162287  0.40160815  0.96130059     0.37300
N1211       N  0.62231742  0.38803041  0.04140727    -0.42900
N1212       N  0.76158037  0.40440274  0.94729824    -0.42900
C1213       C  0.59701954  0.27762734  0.64376985     0.00700
C1214       C  0.61285060  0.28700763  0.66834038    -0.11200
C1215       C  0.61308787  0.31127087  0.68303154     0.02900
C1216       C  0.59708185  0.32664535  0.67325667     0.00600
C1217       C  0.58113767  0.31735189  0.64882919    -0.11100
C1218       C  0.58084864  0.29304189  0.63406761     0.02800
H1219       H  0.62569017  0.27577782  0.67600180     0.15800
H1220       H  0.56886075  0.32919557  0.64121482     0.15800
C1221       C  0.56379950  0.28472635  0.60915157     0.37400
C1222       C  0.63159840  0.32118516  0.70723687     0.37300
N1223       N  0.55010735  0.27822387  0.58919798    -0.42900
N1224       N  0.64660159  0.32924485  0.72653174    -0.42900
C1225       C  0.51920273  0.39791545  0.67358027     0.00700
C1226       C  0.99014238  0.38474695  0.68729377    -0.11200
C1227       C  0.96065672  0.37061430  0.67385412     0.02900
C1228       C  0.95974147  0.36882960  0.64591890     0.00600
C1229       C  0.98893311  0.38472603  0.63221329    -0.11100
C1230       C  0.51842941  0.39921951  0.64567952     0.02800
H1231       H  0.99035891  0.38404176  0.70872404     0.15800
H1232       H  0.98881528  0.38411778  0.61079284     0.15800
C1233       C  0.54728032  0.41247601  0.63021612     0.37400
C1234       C  0.93188398  0.35627516  0.68947377     0.37300
N1235       N  0.57039028  0.42303186  0.61781273    -0.42900
N1236       N  0.90887001  0.34486510  0.70205564    -0.42900
C1237       C  0.59317159  0.40355235  0.79940967     0.00700
C1238       C  0.59968672  0.38187825  0.81254503    -0.11200
C1239       C  0.59766442  0.37848189  0.84002053     0.02900
C1240       C  0.58845328  0.39668577  0.85508677     0.00600
C1241       C  0.58159164  0.41815583  0.84210560    -0.11100
C1242       C  0.58423856  0.42204261  0.81454244     0.02800
H1243       H  0.60662661  0.36752758  0.80130269     0.15800
H1244       H  0.57457561  0.43227841  0.85358488     0.15800
C1245       C  0.57697887  0.44463459  0.80247485     0.37400
C1246       C  0.60398443  0.35517710  0.85205697     0.37300
N1247       N  0.57114371  0.46285671  0.79303305    -0.42900
N1248       N  0.60899890  0.33639589  0.86152607    -0.42900
C1249       C  0.77583191  0.01441863  0.70524423     0.00700
C1250       C  0.76235901  0.48445094  0.71781981    -0.11200
C1251       C  0.72907311  0.46368973  0.71875044     0.02900
C1252       C  0.70811301  0.47264939  0.70697357     0.00600
C1253       C  0.72153114  0.50225523  0.69392590    -0.11100
C1254       C  0.75486816  0.02286926  0.69266777     0.02800
H1255       H  0.77788378  0.47749602  0.72759225     0.15800
H1256       H  0.70592297  0.50928419  0.68441102     0.15800
C1257       C  0.76672490  0.05238014  0.67802286     0.37400
C1258       C  0.71724320  0.43388381  0.73294694     0.37300
N1259       N  0.77636342  0.07601535  0.66624944    -0.42900
N1260       N  0.70765212  0.40997904  0.74430071    -0.42900
C1261       C  0.51984507  0.12518105  0.64231631     0.00700
C1262       C  0.52180991  0.12365348  0.66998172    -0.11200
C1263       C  0.99410974  0.10857656  0.68553484     0.02900
C1264       C  0.96350334  0.09458353  0.67345757     0.00600
C1265       C  0.96160120  0.09257944  0.64574608    -0.11100
C1266       C  0.98929891  0.10760564  0.63017685     0.02800
H1267       H  0.54499631  0.13604212  0.67969586     0.15800
H1268       H  0.93837433  0.08123482  0.63608206     0.15800
C1269       C  0.98545226  0.10561870  0.60180193     0.37400
C1270       C  0.99793603  0.10871599  0.71387064     0.37300
N1271       N  0.98244250  0.10403002  0.57905575    -0.42900
N1272       N  0.00120087  0.10878738  0.73655753    -0.42900
C1273       C  0.88481372  0.16631779  0.67124290     0.00700
C1274       C  0.89092138  0.19341766  0.68566058    -0.11200
C1275       C  0.89006162  0.21893755  0.67353147     0.02900
C1276       C  0.88372276  0.21806013  0.64612669     0.00600
C1277       C  0.87817538  0.19127001  0.63159301    -0.11100
C1278       C  0.87808260  0.16531886  0.64384503     0.02800
H1279       H  0.89594507  0.19456836  0.70668867     0.15800
H1280       H  0.87272835  0.19004978  0.61063631     0.15800
C1281       C  0.86941492  0.13756324  0.62788408     0.37400
C1282       C  0.89581642  0.24558455  0.68983629     0.37300
N1283       N  0.86213327  0.11523659  0.61511334    -0.42900
N1284       N  0.90023095  0.26675426  0.70305342    -0.42900
C1285       C  0.97129773  0.21519894  0.94775275     0.00700
C1286       C  0.95868751  0.23564642  0.94813763    -0.11200
C1287       C  0.47854957  0.26901890  0.94757417     0.02900
C1288       C  0.51216920  0.28298010  0.94725594     0.00600
C1289       C  0.02479502  0.26252655  0.94725627    -0.11100
C1290       C  0.00491170  0.22914664  0.94719405     0.02800
H1291       H  0.93298510  0.22556546  0.94826884     0.15800
H1292       H  0.55048758  0.27260457  0.94674752     0.15800
C1293       C  0.01988320  0.21009814  0.94551232     0.37400
C1294       C  0.46346160  0.28801454  0.94625099     0.37300
N1295       N  0.03197990  0.19493970  0.94393002    -0.42900
N1296       N  0.45115964  0.30304081  0.94495173    -0.42900
C1297       C  0.87227642  0.46936207  0.00561213     0.00700
C1298       C  0.86973906  0.46912767  0.97794445    -0.11200
C1299       C  0.88231683  0.49769993  0.96346470     0.02900
C1300       C  0.89776342  0.02752235  0.97679789     0.00600
C1301       C  0.90410462  0.02779227  0.00400555    -0.11100
C1302       C  0.89183654  0.49901867  0.01832555     0.02800
H1303       H  0.85572219  0.44661220  0.96768260     0.15800
H1304       H  0.91685682  0.05037360  0.01436362     0.15800
C1305       C  0.89860791  0.50071811  0.04631188     0.37400
C1306       C  0.87772754  0.49563988  0.93516299     0.37300
N1307       N  0.90402384  0.00200306  0.06886547    -0.42900
N1308       N  0.87409610  0.49400551  0.91247666    -0.42900
C1309       C  0.81906961  0.09983057  0.98530824     0.00700
C1310       C  0.78983681  0.08835106  0.97175958    -0.11200
C1311       C  0.76345024  0.08709596  0.98385477     0.02900
C1312       C  0.76586104  0.09741272  0.01021795     0.00600
C1313       C  0.79435605  0.10704723  0.02433444    -0.11100
C1314       C  0.82090011  0.10856669  0.01219921     0.02800
H1315       H  0.78765623  0.08088916  0.95134307     0.15800
H1316       H  0.79644921  0.11484737  0.04464862     0.15800
C1317       C  0.84983561  0.12031066  0.02773630     0.37400
C1318       C  0.73419931  0.07496791  0.96868450     0.37300
N1319       N  0.87299047  0.12985363  0.04025141    -0.42900
N1320       N  0.71077462  0.06521533  0.95651173    -0.42900
C1321       C  0.89635312  0.10569520  0.85466213     0.00700
C1322       C  0.91218951  0.09233544  0.84164710    -0.11200
C1323       C  0.91022039  0.08854804  0.81411575     0.02900
C1324       C  0.89218287  0.09836716  0.79884892     0.00600
C1325       C  0.87731214  0.11278939  0.81172002    -0.11100
C1326       C  0.87911429  0.11643665  0.83925130     0.02800
H1327       H  0.92590123  0.08439175  0.85304998     0.15800
H1328       H  0.86372494  0.12084596  0.80026023     0.15800
C1329       C  0.86349513  0.13186736  0.85090349     0.37400
C1330       C  0.92770080  0.07531372  0.80206451     0.37300
N1331       N  0.85096936  0.14429486  0.86010553    -0.42900
N1332       N  0.94178770  0.06480312  0.79237908    -0.42900
O1333       O  0.84534217  0.59694061  0.94608756    -0.57000
C1334       C  0.89834304  0.60790761  0.88405695     0.75600
O1335       O  0.95729496  0.65936575  0.94692682    -0.58100
C1336       C  0.84719950  0.60340098  0.97047242     0.75600
C1337       C  0.90246136  0.55718964  0.96362565     0.78000
Cd1338     Cd  0.90182457  0.61228993  0.94130336     1.37500
O1339       O  0.87822060  0.61087179  0.89752591    -0.57000
O1340       O  0.88565493  0.55581817  0.94389054    -0.55800
C1341       C  0.94861063  0.67995549  0.94671466     0.78000
O1342       O  0.92141579  0.58498174  0.97249389    -0.58200
O1343       O  0.91996495  0.60644053  0.89712935    -0.56600
O1344       O  0.87432868  0.61364378  0.98118151    -0.56600
O1345       O  0.91882792  0.66885008  0.94496047    -0.55800
O1346       O  0.88623646  0.63871340  0.71062916    -0.57000
C1347       C  0.88827515  0.59380504  0.76975336     0.75600
O1348       O  0.82322176  0.56630865  0.70216889    -0.58100
C1349       C  0.88440271  0.63921424  0.68565383     0.75600
C1350       C  0.93421029  0.58713677  0.68858379     0.78000
Cd1351     Cd  0.87906932  0.58498378  0.71323454     1.37500
O1352       O  0.88212451  0.61141535  0.75530242    -0.57000
O1353       O  0.93606300  0.60090404  0.71012815    -0.55800
C1354       C  0.81116448  0.53698565  0.70714123     0.78000
O1355       O  0.90614927  0.56930001  0.67954669    -0.58200
O1356       O  0.89013043  0.57189416  0.75803149    -0.56600
O1357       O  0.88147878  0.61512680  0.67377519    -0.56600
O1358       O  0.83090175  0.52858956  0.71451270    -0.55800
O1359       O  0.59388683  0.88264833  0.75710419    -0.57000
C1360       C  0.59832841  0.85351013  0.68740266     0.75600
O1361       O  0.57674612  0.92437582  0.68060242    -0.58100
C1362       C  0.59600549  0.90565941  0.77023639     0.75600
C1363       C  0.67259765  0.95158240  0.70820588     0.78000
Cd1364     Cd  0.60408796  0.90779349  0.71375647     1.37500
O1365       O  0.59779278  0.85453622  0.71236997    -0.57000
O1366       O  0.65980996  0.92200469  0.71251012    -0.55800
C1367       C  0.54868709  0.90462816  0.68852982     0.78000
O1368       O  0.65336486  0.96188063  0.70538484    -0.58200
O1369       O  0.60043858  0.87709065  0.67482308    -0.56600
O1370       O  0.60117289  0.93014271  0.75705697    -0.56600
O1371       O  0.54685336  0.88927172  0.70938867    -0.55800
O1372       O  0.60671244  0.89131530  0.89796968    -0.57000
C1373       C  0.63656847  0.89251595  0.96865476     0.75600
O1374       O  0.56355565  0.91388707  0.97197983    -0.58100
C1375       C  0.58615737  0.89379731  0.88428060     0.75600
C1376       C  0.53490346  0.81830977  0.94597874     0.78000
Cd1377     Cd  0.58185393  0.88619926  0.94089999     1.37500
O1378       O  0.63643633  0.89624543  0.94387444    -0.57000
O1379       O  0.52633545  0.83895785  0.94688869    -0.55800
C1380       C  0.58348732  0.94174719  0.96365800     0.78000
O1381       O  0.56454859  0.82940144  0.94343501    -0.58200
O1382       O  0.61125270  0.88624285  0.98059483    -0.56600
O1383       O  0.56352574  0.89346808  0.89677639    -0.56600
O1384       O  0.60041382  0.94311613  0.94435021    -0.55800
O1385       O  0.84268535  0.74244304  0.37784827    -0.57000
C1386       C  0.89563920  0.79407841  0.43512387     0.75600
O1387       O  0.95132756  0.79698101  0.37021346    -0.58100
C1388       C  0.83996330  0.74069309  0.35292947     0.75600
C1389       C  0.89424211  0.84317650  0.35560930     0.78000
Cd1390     Cd  0.89661858  0.78951275  0.37845940     1.37500
O1391       O  0.87377150  0.77096047  0.42225037    -0.57000
O1392       O  0.87978331  0.82909887  0.37654922    -0.55800
C1393       C  0.94141176  0.76723865  0.37076590     0.78000
O1394       O  0.91229994  0.83410996  0.34594655    -0.58200
O1395       O  0.91824093  0.81598636  0.42176457    -0.56600
O1396       O  0.86327564  0.76203982  0.33988971    -0.56600
O1397       O  0.91174408  0.74924263  0.37402355    -0.55800
O1398       O  0.88419625  0.77449730  0.56302425    -0.57000
C1399       C  0.88141305  0.74365242  0.63231747     0.75600
O1400       O  0.90232013  0.83269489  0.64106600    -0.58100
C1401       C  0.88531319  0.79672226  0.54897037     0.75600
C1402       C  0.80756144  0.77212643  0.60861094     0.78000
Cd1403     Cd  0.87527446  0.79248804  0.60530700     1.37500
O1404       O  0.88516516  0.74770954  0.60757263    -0.57000
O1405       O  0.81773878  0.75289580  0.60798977    -0.55800
C1406       C  0.92997243  0.84603835  0.63101195     0.78000
O1407       O  0.82897337  0.80152171  0.60842981    -0.58200
O1408       O  0.87495851  0.76230485  0.64435279    -0.56600
O1409       O  0.88201477  0.81753356  0.56110286    -0.56600
O1410       O  0.93132655  0.83715236  0.60792079    -0.55800
O1411       O  0.71224869  0.61192388  0.09048881    -0.57000
C1412       C  0.74047681  0.60090195  0.02261199     0.75600
O1413       O  0.65279112  0.58605657  0.00997007    -0.58100
C1414       C  0.68662074  0.60481612  0.10227189     0.75600
C1415       C  0.71672644  0.68049651  0.03962676     0.78000
Cd1416     Cd  0.69332527  0.61237239  0.04591024     1.37500
O1417       O  0.73754922  0.60087370  0.04744165    -0.57000
O1418       O  0.73460342  0.66890192  0.04237837    -0.55800
C1419       C  0.63878014  0.55852486  0.02061158     0.78000
O1420       O  0.68692490  0.66029412  0.03878193    -0.58200
O1421       O  0.72126672  0.60553940  0.00895462    -0.56600
O1422       O  0.66322371  0.60052265  0.08792168    -0.56600
O1423       O  0.64786527  0.55692205  0.04380208    -0.55800
O1424       O  0.70380499  0.60734703  0.23012931    -0.57000
C1425       C  0.73493655  0.63267101  0.30038397     0.75600
O1426       O  0.64341544  0.56335257  0.30632603    -0.58100
C1427       C  0.68238742  0.58575196  0.21571288     0.75600
C1428       C  0.71103316  0.53494731  0.27589466     0.78000
Cd1429     Cd  0.68661458  0.57881659  0.27215898     1.37500
O1430       O  0.73196727  0.63336815  0.27552870    -0.57000
O1431       O  0.72837730  0.56486790  0.27362167    -0.55800
C1432       C  0.63414494  0.58164910  0.29702155     0.78000
O1433       O  0.68108963  0.52428896  0.27699968    -0.58200
O1434       O  0.71527576  0.60694677  0.31192765    -0.56600
O1435       O  0.66227160  0.56028153  0.22753371    -0.56600
O1436       O  0.64647682  0.59510985  0.27531176    -0.55800
O1437       O  0.59742751  0.71885224  0.41786434    -0.57000
C1438       C  0.63020616  0.74555355  0.34877207     0.75600
O1439       O  0.55956998  0.65154662  0.34319836    -0.58100
C1440       C  0.57673250  0.69568404  0.43150046     0.75600
C1441       C  0.52846563  0.71778195  0.36692704     0.78000
Cd1442     Cd  0.57439388  0.69666125  0.37468440     1.37500
O1443       O  0.62918406  0.74175068  0.37360158    -0.57000
O1444       O  0.51889438  0.68834773  0.37044205    -0.55800
C1445       C  0.57808392  0.64305438  0.35344876     0.78000
O1446       O  0.55836014  0.73600628  0.36556479    -0.58200
O1447       O  0.60540419  0.72599935  0.33595928    -0.56600
O1448       O  0.55466388  0.67249261  0.41871951    -0.56600
O1449       O  0.59212511  0.65724801  0.37451066    -0.55800
O1450       O  0.59515007  0.72347311  0.55926807    -0.57000
C1451       C  0.59842901  0.75207904  0.62913609     0.75600
O1452       O  0.57659350  0.66260895  0.63771876    -0.58100
C1453       C  0.59226882  0.70067121  0.54535324     0.75600
C1454       C  0.66990891  0.72245516  0.60457609     0.78000
Cd1455     Cd  0.60260217  0.70315226  0.60153932     1.37500
O1456       O  0.58718378  0.74380386  0.60603170    -0.57000
O1457       O  0.66005994  0.74118199  0.59833367    -0.55800
C1458       C  0.54886032  0.64868127  0.62746199     0.78000
O1459       O  0.64827547  0.69370814  0.60903322    -0.58200
O1460       O  0.61139807  0.73751166  0.63915642    -0.56600
O1461       O  0.59376468  0.67852920  0.55751313    -0.56600
O1462       O  0.54696494  0.65804367  0.60450393    -0.55800
O1463       O  0.77975308  0.88019286  0.22822616    -0.57000
C1464       C  0.73665872  0.85035997  0.29411827     0.75600
O1465       O  0.82701119  0.91981515  0.30722865    -0.58100
C1466       C  0.79791190  0.90510474  0.21500694     0.75600
C1467       C  0.76408035  0.95077386  0.27440841     0.78000
Cd1468     Cd  0.78769301  0.90677651  0.27031837     1.37500
O1469       O  0.73943947  0.85312159  0.26926078    -0.57000
O1470       O  0.74704486  0.92189870  0.26767887    -0.55800
C1471       C  0.84012219  0.90561952  0.29709493     0.78000
O1472       O  0.79333546  0.96031798  0.27920538    -0.58200
O1473       O  0.75777298  0.87355742  0.30742341    -0.56600
O1474       O  0.81201030  0.93124680  0.22758792    -0.56600
O1475       O  0.83135841  0.89550700  0.27384527    -0.55800
O1476       O  0.78779079  0.90877886  0.08701912    -0.57000
C1477       C  0.74420930  0.89317690  0.01991028     0.75600
O1478       O  0.83426339  0.91273620  0.00969678    -0.58100
C1479       C  0.80095437  0.89728776  0.10147244     0.75600
C1480       C  0.76912307  0.81846006  0.04186420     0.78000
Cd1481     Cd  0.79382145  0.88687144  0.04553636     1.37500
O1482       O  0.74725346  0.89422505  0.04481496    -0.57000
O1483       O  0.75207353  0.83055442  0.04655600    -0.55800
C1484       C  0.84934040  0.93993230  0.02056366     0.78000
O1485       O  0.79869104  0.83834654  0.03833792    -0.58200
O1486       O  0.76433433  0.88949634  0.00720666    -0.56600
O1487       O  0.81150896  0.88154592  0.08992101    -0.56600
O1488       O  0.84122657  0.94116307  0.04394265    -0.55800
C1489       C  0.80280787  0.90092268  0.13049673     0.00700
C1490       C  0.79905055  0.87527520  0.14613649    -0.11200
C1491       C  0.79801895  0.87630292  0.17369641     0.02900
C1492       C  0.80145650  0.90377618  0.18615292     0.00600
C1493       C  0.80658189  0.92997111  0.17054968    -0.11100
C1494       C  0.80689203  0.92864328  0.14294045     0.02800
H1495       H  0.79594673  0.85390823  0.13675964     0.15800
H1496       H  0.80931061  0.95119518  0.17990520     0.15800
C1497       C  0.81181278  0.95620052  0.12797537     0.37400
C1498       C  0.79368073  0.84890884  0.18860964     0.37300
N1499       N  0.81577217  0.97837895  0.11611629    -0.42900
N1500       N  0.79017243  0.82692066  0.20051029    -0.42900
C1501       C  0.65854404  0.77164042  0.33522937     0.00700
C1502       C  0.66015578  0.77091768  0.30754154    -0.11200
C1503       C  0.68551348  0.79572554  0.29356947     0.02900
C1504       C  0.71004718  0.82215397  0.30741413     0.00600
C1505       C  0.70875101  0.82243148  0.33511805    -0.11100
C1506       C  0.68345475  0.79774540  0.34904824     0.02800
H1507       H  0.64136491  0.75095715  0.29664120     0.15800
H1508       H  0.72734420  0.84243107  0.34612218     0.15800
C1509       C  0.68346943  0.80078411  0.37740604     0.37400
C1510       C  0.68530055  0.79326263  0.26514320     0.37300
N1511       N  0.68369318  0.80350330  0.40010784    -0.42900
N1512       N  0.68495303  0.79108857  0.24237558    -0.42900
C1513       C  0.57874567  0.69622178  0.46080663     0.00700
C1514       C  0.59698400  0.72590785  0.47336671    -0.11200
C1515       C  0.60121782  0.72801122  0.50081208     0.02900
C1516       C  0.58737788  0.69987909  0.51637311     0.00600
C1517       C  0.56877706  0.67022233  0.50393742    -0.11100
C1518       C  0.56403969  0.66815261  0.47649019     0.02800
H1519       H  0.60825058  0.74769849  0.46166854     0.15800
H1520       H  0.55779609  0.64851539  0.51574048     0.15800
C1521       C  0.54475937  0.63682501  0.46507616     0.37400
C1522       C  0.62111759  0.75930147  0.51218541     0.37300
N1523       N  0.52921606  0.61165509  0.45603940    -0.42900
N1524       N  0.63712885  0.78445973  0.52111506    -0.42900
C1525       C  0.72522835  0.51383748  0.27675083     0.00700
C1526       C  0.70485077  0.98063725  0.27791311    -0.11200
C1527       C  0.71686744  0.95978970  0.27765564     0.02900
C1528       C  0.75029575  0.97203185  0.27613657     0.00600
C1529       C  0.77076081  0.50519489  0.27547637    -0.11100
C1530       C  0.75877580  0.52607617  0.27570702     0.02800
H1531       H  0.67919812  0.97069363  0.27887544     0.15800
H1532       H  0.79639031  0.51502650  0.27427186     0.15800
C1533       C  0.78182890  0.55991439  0.27465176     0.37400
C1534       C  0.69413753  0.92591859  0.27951800     0.37300
N1535       N  0.80046751  0.58698673  0.27380304    -0.42900
N1536       N  0.67598259  0.89877115  0.28106187    -0.42900
C1537       C  0.61252364  0.58963368  0.31159333     0.00700
C1538       C  0.61366562  0.59037958  0.33936639    -0.11200
C1539       C  0.60050929  0.60554163  0.35373628     0.02900
C1540       C  0.58539946  0.62009825  0.34031426     0.00600
C1541       C  0.58138762  0.61634583  0.31279832    -0.11100
C1542       C  0.59488619  0.60159850  0.29844492     0.02800
H1543       H  0.62676894  0.58104073  0.34984977     0.15800
H1544       H  0.56948450  0.62685291  0.30214428     0.15800
C1545       C  0.59116046  0.60013019  0.27007239     0.37400
C1546       C  0.60377213  0.60658196  0.38216373     0.37300
N1547       N  0.58816264  0.59903263  0.24732857    -0.42900
N1548       N  0.60638541  0.60733950  0.40494285    -0.42900
C1549       C  0.75506624  0.78301346  0.04065590     0.00700
C1550       C  0.77478448  0.77081905  0.03397064    -0.11200
C1551       C  0.76282632  0.73776452  0.03299012     0.02900
C1552       C  0.73016018  0.71578324  0.03850480     0.00600
C1553       C  0.71033827  0.72791691  0.04479443    -0.11100
C1554       C  0.72237127  0.76093352  0.04621989     0.02800
H1555       H  0.79981069  0.78716535  0.02962323     0.15800
H1556       H  0.68541504  0.71150324  0.04945649     0.15800
C1557       C  0.70050140  0.77106601  0.05428781     0.37400
C1558       C  0.78478930  0.72728692  0.02608274     0.37300
N1559       N  0.68292167  0.77904759  0.06091312    -0.42900
N1560       N  0.80240544  0.71888717  0.02062601    -0.42900
C1561       C  0.68176320  0.59056581  0.18661410     0.00700
C1562       C  0.70843681  0.61708978  0.17505608    -0.11200
C1563       C  0.70996405  0.62260531  0.14779466     0.02900
C1564       C  0.68442048  0.60141907  0.13132913     0.00600
C1565       C  0.65719716  0.57564571  0.14273846    -0.11100
C1566       C  0.65573656  0.56985697  0.17006905     0.02800
H1567       H  0.72847496  0.63356801  0.18729918     0.15800
H1568       H  0.63743232  0.55936539  0.13015504     0.15800
C1569       C  0.62729380  0.54240092  0.18030713     0.37400
C1570       C  0.73762318  0.65076650  0.13727361     0.37300
N1571       N  0.60441202  0.52027008  0.18830027    -0.42900
N1572       N  0.75961822  0.67337540  0.12875218    -0.42900
C1573       C  0.77244011  0.76018983  0.60896888     0.00700
C1574       C  0.75085325  0.72705915  0.61151530    -0.11200
C1575       C  0.71757101  0.71410007  0.61043542     0.02900
C1576       C  0.70495188  0.73439247  0.60659341     0.00600
C1577       C  0.72652407  0.76753719  0.60452610    -0.11100
C1578       C  0.75974999  0.78050671  0.60576057     0.02800
H1579       H  0.75997131  0.71096869  0.61413079     0.15800
H1580       H  0.71744283  0.78365018  0.60183184     0.15800
C1581       C  0.77999027  0.81473162  0.60323991     0.37400
C1582       C  0.69716978  0.67987670  0.61287727     0.37300
N1583       N  0.79608638  0.84218602  0.60124079    -0.42900
N1584       N  0.68082249  0.65244449  0.61484064    -0.42900
C1585       C  0.50622060  0.73055718  0.36559797     0.00700
C1586       C  0.97367012  0.70983380  0.37093115    -0.11200
C1587       C  0.95219308  0.72099515  0.37225577     0.02900
C1588       C  0.96305206  0.75392121  0.36822375     0.00600
C1589       C  0.99546552  0.77455263  0.36224714    -0.11100
C1590       C  0.51693905  0.76333181  0.36080691     0.02800
H1591       H  0.96492753  0.68471991  0.37467514     0.15800
H1592       H  0.00423999  0.79973351  0.35884199     0.15800
C1593       C  0.54981329  0.78630222  0.35445645     0.37400
C1594       C  0.91930513  0.69786853  0.37842705     0.37300
N1595       N  0.57612349  0.80478021  0.34933733    -0.42900
N1596       N  0.89297116  0.67927288  0.38336017    -0.42900
C1597       C  0.86185987  0.89807305  0.31237896     0.00700
C1598       C  0.85951478  0.89620717  0.34004571    -0.11200
C1599       C  0.87247004  0.88095270  0.35492766     0.02900
C1600       C  0.88797604  0.86685192  0.34209130     0.00600
C1601       C  0.89352620  0.87203038  0.31481001    -0.11100
C1602       C  0.88083641  0.88758719  0.29997215     0.02800
H1603       H  0.84577306  0.90486062  0.35001402     0.15800
H1604       H  0.90618354  0.86226304  0.30469999     0.15800
C1605       C  0.88706017  0.89177866  0.27195379     0.37400
C1606       C  0.86873366  0.87950909  0.38326465     0.37300
N1607       N  0.89218281  0.89535006  0.24952372    -0.42900
N1608       N  0.86586101  0.87854583  0.40597985    -0.42900
C1609       C  0.81156475  0.71423145  0.33987171     0.00700
C1610       C  0.79445134  0.68500482  0.35338818    -0.11200
C1611       C  0.76905665  0.65825695  0.34127337     0.02900
C1612       C  0.76029411  0.66051098  0.31492718     0.00600
C1613       C  0.77670358  0.69011420  0.30178152    -0.11100
C1614       C  0.80203205  0.71686276  0.31396454     0.02800
H1615       H  0.80154448  0.68272580  0.37331887     0.15800
H1616       H  0.76981863  0.69244115  0.28179230     0.15800
C1617       C  0.81720346  0.74675049  0.29956561     0.37400
C1618       C  0.75333124  0.62878675  0.35624540     0.37300
N1619       N  0.82915295  0.77064788  0.28795526    -0.42900
N1620       N  0.74079235  0.60526163  0.36835403    -0.42900
C1621       C  0.89454274  0.79513578  0.46428602     0.00700
C1622       C  0.90313595  0.82407273  0.47680663    -0.11200
C1623       C  0.90038564  0.82539878  0.50430273     0.02900
C1624       C  0.88947596  0.79740987  0.51985065     0.00600
C1625       C  0.88192987  0.76876059  0.50724222    -0.11100
C1626       C  0.88410681  0.76734317  0.47981728     0.02800
H1627       H  0.91127247  0.84554788  0.46500517     0.15800
H1628       H  0.87374501  0.74710423  0.51880240     0.15800
C1629       C  0.87622931  0.73715118  0.46821070     0.37400
C1630       C  0.90926199  0.85583697  0.51590471     0.37300
N1631       N  0.86995667  0.71297279  0.45892744    -0.42900
N1632       N  0.91635587  0.88026930  0.52513535    -0.42900
C1633       C  0.58900019  0.97147587  0.97680669     0.00700
C1634       C  0.58303355  0.97089294  0.00398305    -0.11200
C1635       C  0.59612431  0.49942685  0.01839501     0.02900
C1636       C  0.61583935  0.52919383  0.00573449     0.00600
C1637       C  0.61797935  0.52978867  0.97806749    -0.11100
C1638       C  0.60463323  0.00139601  0.96365834     0.02800
H1639       H  0.57003855  0.94816924  0.01426724     0.15800
H1640       H  0.63202353  0.55241106  0.96783292     0.15800
C1641       C  0.60842667  0.00374144  0.93532380     0.37400
C1642       C  0.58927159  0.49740762  0.04626750     0.37300
N1643       N  0.61132736  0.00556811  0.91260315    -0.42900
N1644       N  0.58344418  0.49577366  0.06853890    -0.42900
C1645       C  0.66472778  0.89472305  0.98250699     0.00700
C1646       C  0.69017692  0.89798698  0.96718409    -0.11200
C1647       C  0.71658155  0.89832364  0.97879708     0.02900
C1648       C  0.71799724  0.89529770  0.00654370     0.00600
C1649       C  0.69309520  0.89315867  0.02196431    -0.11100
C1650       C  0.66665038  0.89281553  0.01032574     0.02800
H1651       H  0.68934129  0.89984017  0.94584885     0.15800
H1652       H  0.69390224  0.89110839  0.04328230     0.15800
C1653       C  0.64198239  0.89029342  0.02759170     0.37400
C1654       C  0.74169918  0.90190018  0.96152605     0.37300
N1655       N  0.62228827  0.88826494  0.04152321    -0.42900
N1656       N  0.76172909  0.90479718  0.94756179    -0.42900
C1657       C  0.59700062  0.77748915  0.64390486     0.00700
C1658       C  0.61288938  0.78688869  0.66845411    -0.11200
C1659       C  0.61317448  0.81117615  0.68314897     0.02900
C1660       C  0.59715429  0.82654661  0.67340264     0.00600
C1661       C  0.58115026  0.81723207  0.64900343    -0.11100
C1662       C  0.58081902  0.79290810  0.63423516     0.02800
H1663       H  0.62573402  0.77565553  0.67609573     0.15800
H1664       H  0.56887223  0.82908352  0.64140922     0.15800
C1665       C  0.56377350  0.78463644  0.60931798     0.37400
C1666       C  0.63175762  0.82113321  0.70731667     0.37300
N1667       N  0.55008972  0.77817638  0.58936112    -0.42900
N1668       N  0.64682264  0.82923472  0.72657869    -0.42900
C1669       C  0.51919053  0.89760456  0.67361095     0.00700
C1670       C  0.99011833  0.88438448  0.68731190    -0.11200
C1671       C  0.96063967  0.87025350  0.67386114     0.02900
C1672       C  0.95973628  0.86850453  0.64592381     0.00600
C1673       C  0.98893699  0.88440537  0.63222987    -0.11100
C1674       C  0.51842873  0.89892245  0.64570933     0.02800
H1675       H  0.99032206  0.88366236  0.70874192     0.15800
H1676       H  0.98882956  0.88381797  0.61080898     0.15800
C1677       C  0.54729705  0.91227180  0.63025975     0.37400
C1678       C  0.93185956  0.85589652  0.68947153     0.37300
N1679       N  0.57042721  0.92291722  0.61787410    -0.42900
N1680       N  0.90883891  0.84447675  0.70204515    -0.42900
C1681       C  0.59331848  0.90362574  0.79949833     0.00700
C1682       C  0.59981732  0.88194796  0.81264869    -0.11200
C1683       C  0.59775263  0.87853695  0.84012242     0.02900
C1684       C  0.58854341  0.89675174  0.85517571     0.00600
C1685       C  0.58171162  0.91823589  0.84218083    -0.11100
C1686       C  0.58437750  0.92211962  0.81461751     0.02800
H1687       H  0.60675445  0.86758722  0.80141775     0.15800
H1688       H  0.57469035  0.93236231  0.85364880     0.15800
C1689       C  0.57710941  0.94469848  0.80253578     0.37400
C1690       C  0.60399275  0.85518102  0.85216590     0.37300
N1691       N  0.57126075  0.96290735  0.79308624    -0.42900
N1692       N  0.60893171  0.83635047  0.86163923    -0.42900
C1693       C  0.77579835  0.51439365  0.70531398     0.00700
C1694       C  0.76242640  0.98449742  0.71777685    -0.11200
C1695       C  0.72914841  0.96370750  0.71871098     0.02900
C1696       C  0.70815868  0.97263147  0.70693489     0.00600
C1697       C  0.72154801  0.00220915  0.69384047    -0.11100
C1698       C  0.75485382  0.52290169  0.69277948     0.02800
H1699       H  0.77797275  0.97757888  0.72756157     0.15800
H1700       H  0.70592179  0.00920031  0.68430426     0.15800
C1701       C  0.76672407  0.55247726  0.67822969     0.37400
C1702       C  0.71736454  0.93389349  0.73288441     0.37300
N1703       N  0.77636579  0.57616957  0.66654059    -0.42900
N1704       N  0.70781408  0.90997595  0.74420973    -0.42900
C1705       C  0.51981109  0.62502724  0.64238160     0.00700
C1706       C  0.52178938  0.62355355  0.67005042    -0.11200
C1707       C  0.99409788  0.60848694  0.68561345     0.02900
C1708       C  0.96348468  0.59443551  0.67354230     0.00600
C1709       C  0.96157163  0.59238315  0.64583387    -0.11100
C1710       C  0.98926030  0.60741163  0.63025474     0.02800
H1711       H  0.54497824  0.63598250  0.67975781     0.15800
H1712       H  0.93833969  0.58100381  0.63617675     0.15800
C1713       C  0.98539201  0.60539614  0.60188221     0.37400
C1714       C  0.99793880  0.60871659  0.71395253     0.37300
N1715       N  0.98235588  0.60378366  0.57913844    -0.42900
N1716       N  0.00120784  0.60886461  0.73664308    -0.42900
C1717       C  0.88498179  0.66627909  0.67131682     0.00700
C1718       C  0.89068433  0.69320891  0.68578701    -0.11200
C1719       C  0.88974589  0.71868515  0.67365538     0.02900
C1720       C  0.88369353  0.71792159  0.64620171     0.00600
C1721       C  0.87858394  0.69131445  0.63161940    -0.11100
C1722       C  0.87863193  0.66542989  0.64385766     0.02800
H1723       H  0.89544387  0.69425362  0.70685714     0.15800
H1724       H  0.87340947  0.69018878  0.61061501     0.15800
C1725       C  0.87056165  0.63790486  0.62778896     0.37400
C1726       C  0.89511338  0.74515672  0.69001862     0.37300
N1727       N  0.86378168  0.61576586  0.61492644    -0.42900
N1728       N  0.89922616  0.76618425  0.70328463    -0.42900
C1729       C  0.97137348  0.71522528  0.94789056     0.00700
C1730       C  0.95874062  0.73565033  0.94838425    -0.11200
C1731       C  0.47857928  0.76902734  0.94783038     0.02900
C1732       C  0.51220091  0.78301552  0.94740921     0.00600
C1733       C  0.02484912  0.76258222  0.94731678    -0.11100
C1734       C  0.00498723  0.72919995  0.94724512     0.02800
H1735       H  0.93303651  0.72554811  0.94859385     0.15800
H1736       H  0.55054118  0.77267775  0.94673023     0.15800
C1737       C  0.01997633  0.71017744  0.94545037     0.37400
C1738       C  0.46346081  0.78800000  0.94664828     0.37300
N1739       N  0.03208494  0.69503896  0.94377676    -0.42900
N1740       N  0.45113307  0.80300792  0.94546498    -0.42900
C1741       C  0.87219764  0.96943873  0.00575893     0.00700
C1742       C  0.86978386  0.96920632  0.97808155    -0.11200
C1743       C  0.88243071  0.99778058  0.96359327     0.02900
C1744       C  0.89778969  0.52744657  0.97666386     0.00600
C1745       C  0.90424865  0.52771029  0.00384699    -0.11100
C1746       C  0.89169879  0.99910088  0.01848464     0.02800
H1747       H  0.85585576  0.94668895  0.96780459     0.15800
H1748       H  0.91706872  0.55029168  0.01419840     0.15800
C1749       C  0.89847205  0.00080515  0.04647045     0.37400
C1750       C  0.87813076  0.99573389  0.93526330     0.37300
N1751       N  0.90412963  0.50190405  0.06871196    -0.42900
N1752       N  0.87476291  0.99411431  0.91255121    -0.42900
C1753       C  0.81920014  0.59976310  0.98528361     0.00700
C1754       C  0.78998935  0.58831984  0.97171073    -0.11200
C1755       C  0.76359625  0.58706388  0.98378927     0.02900
C1756       C  0.76597906  0.59734634  0.01016222     0.00600
C1757       C  0.79445050  0.60693401  0.02430310    -0.11100
C1758       C  0.82100024  0.60844992  0.01218356     0.02800
H1759       H  0.78783342  0.58089343  0.95128570     0.15800
H1760       H  0.79652443  0.61470327  0.04462476     0.15800
C1761       C  0.84991328  0.62014716  0.02774369     0.37400
C1762       C  0.73437866  0.57499060  0.96858091     0.37300
N1763       N  0.87305100  0.62965161  0.04027585    -0.42900
N1764       N  0.71098462  0.56528530  0.95637271    -0.42900
C1765       C  0.89653963  0.60577260  0.85465891     0.00700
C1766       C  0.91232602  0.59235346  0.84165369    -0.11200
C1767       C  0.91035448  0.58855921  0.81412493     0.02900
C1768       C  0.89234961  0.59841294  0.79885561     0.00600
C1769       C  0.87753994  0.61290362  0.81171345    -0.11100
C1770       C  0.87935414  0.61657013  0.83924076     0.02800
H1771       H  0.92600365  0.58437334  0.85306121     0.15800
H1772       H  0.86398491  0.62099311  0.80024723     0.15800
C1773       C  0.86379432  0.63206846  0.85087809     0.37400
C1774       C  0.92780853  0.57529404  0.80207668     0.37300
N1775       N  0.85131395  0.64455110  0.86006213    -0.42900
N1776       N  0.94187963  0.56476586  0.79239169    -0.42900
loop_ 
_geom_bond_atom_site_label_1 
_geom_bond_atom_site_label_2 
_geom_bond_distance 
_geom_bond_site_symmetry_2 
_ccdc_geom_bond_type 
O1            C4   1.268       .  A
O1           Cd6   2.464       .  S
C2           O11   1.268       .  A
C2            O7   1.266       .  A
C2          C433   1.491       .  S
O3            C9   1.270       .  A
O3           Cd6   2.508       .  S
C4           O12   1.265       .  A
C4          C421   1.490       .  S
C5           O10   1.269       .  A
C5            O8   1.264       .  A
C5          C412   1.493       .  S
Cd6          O13   2.444       .  S
Cd6          O12   2.453       .  S
Cd6          O11   2.484       .  S
Cd6           O7   2.469       .  S
Cd6          O10   2.525       .  S
Cd6           O8   2.446       .  S
C9           O13   1.263       .  A
C9          C397   1.495       .  S
O14          C17   1.267       .  A
O14         Cd19   2.457       .  S
C15          O24   1.268       .  A
C15          O20   1.266       .  A
C15         C436   1.488       .  S
O16          C22   1.259       .  A
O16         Cd19   2.442       .  S
C17          O25   1.264       .  A
C17         C385   1.485       .  S
C18          O23   1.268       .  A
C18          O21   1.264       .  A
C18         C376   1.494       .  S
Cd19         O26   2.541       .  S
Cd19         O25   2.435       .  S
Cd19         O24   2.476       .  S
Cd19         O20   2.463       .  S
Cd19         O23   2.514       .  S
Cd19         O21   2.473       .  S
C22          O26   1.270       .  A
C22         C361   1.497       .  S
O27          C30   1.265       .  A
O27         Cd32   2.431       .  S
C28          O37   1.264       .  A
C28          O33   1.266       .  A
C28         C328   1.472       .  S
O29          C35   1.269       .  A
O29         Cd32   2.500       .  S
C30          O38   1.269       .  A
C30         C349   1.486       .  S
C31          O36   1.272       .  A
C31          O34   1.261       .  A
C31         C364   1.495       .  S
Cd32         O39   2.455       .  S
Cd32         O38   2.493       .  S
Cd32         O37   2.435       .  S
Cd32         O33   2.450       .  S
Cd32         O36   2.532       .  S
Cd32         O34   2.431       .  S
C35          O39   1.265       .  A
C35         C337   1.491       .  S
O40          C43   1.264       .  A
O40         Cd45   2.446       .  S
C41          O50   1.265       .  A
C41          O46   1.266       .  A
C41         C313   1.485       .  S
O42          C48   1.269       .  A
O42         Cd45   2.524       .  S
C43          O51   1.267       .  A
C43         C352   1.479       .  S
C44          O49   1.262       .  A
C44          O47   1.270       .  A
C44         C400   1.496       .  S
Cd45         O52   2.444       .  S
Cd45         O51   2.483       .  S
Cd45         O50   2.452       .  S
Cd45         O46   2.442       .  S
Cd45         O49   2.446       .  S
Cd45         O47   2.516       .  S
C48          O52   1.264       .  A
C48         C301   1.492       .  S
O53          C56   1.266       .  A
O53         Cd58   2.447       .  S
C54          O63   1.268       .  A
C54          O59   1.264       .  A
C54         C289   1.480       .  S
O55          C61   1.271       .  A
O55         Cd58   2.531       .  S
C56          O64   1.265       .  A
C56         C277   1.477       .  S
C57          O62   1.270       .  A
C57          O60   1.264       .  A
C57         C268   1.491       .  S
Cd58         O65   2.431       .  S
Cd58         O64   2.448       .  S
Cd58         O63   2.489       .  S
Cd58         O59   2.440       .  S
Cd58         O62   2.504       .  S
Cd58         O60   2.446       .  S
C61          O65   1.260       .  A
C61         C256   1.497       .  S
O66          C69   1.266       .  A
O66         Cd71   2.445       .  S
C67          O76   1.264       .  A
C67          O72   1.267       .  A
C67         C388   1.481       .  S
O68          C74   1.267       .  A
O68         Cd71   2.495       .  S
C69          O77   1.268       .  A
C69         C292   1.488       .  S
C70          O75   1.269       .  A
C70          O73   1.262       .  A
C70         C241   1.496       .  S
Cd71         O78   2.473       .  S
Cd71         O77   2.481       .  S
Cd71         O76   2.446       .  S
Cd71         O72   2.460       .  S
Cd71         O75   2.509       .  S
Cd71         O73   2.460       .  S
C74          O78   1.264       .  A
C74         C340   1.495       .  S
O79          C82   1.264       .  A
O79         Cd84   2.431       .  S
C80          O89   1.264       .  A
C80          O85   1.266       .  A
C80         C424   1.483       .  S
O81          C87   1.269       .  A
O81         Cd84   2.495       .  S
C82          O90   1.267       .  A
C82         C232   1.478       .  S
C83          O88   1.270       .  A
C83          O86   1.260       .  A
C83         C220   1.494       .  S
Cd84         O91   2.468       .  S
Cd84         O90   2.485       .  S
Cd84         O89   2.446       .  S
Cd84         O85   2.481       .  S
Cd84         O88   2.527       .  S
Cd84         O86   2.447       .  S
C87          O91   1.265       .  A
C87         C304   1.492       .  S
O92          C95   1.266       .  A
O92         Cd97   2.439       .  S
C93         O102   1.264       .  A
C93          O98   1.267       .  A
C93         C280   1.480       .  S
O94         C100   1.270       .  A
O94         Cd97   2.531       .  S
C95         O103   1.269       .  A
C95         C229   1.491       .  S
C96         O101   1.273       .  A
C96          O99   1.261       .  A
C96         C193   1.501       .  S
Cd97        O104   2.457       .  S
Cd97        O103   2.491       .  S
Cd97        O102   2.432       .  S
Cd97         O98   2.441       .  S
Cd97        O101   2.535       .  S
Cd97         O99   2.446       .  S
C100        O104   1.263       .  A
C100        C205   1.495       .  S
O105        C108   1.266       .  A
O105       Cd110   2.440       .  S
C106        O115   1.266       .  A
C106        O111   1.266       .  A
C106        C169   1.482       .  S
O107        C113   1.270       .  A
O107       Cd110   2.511       .  S
C108        O116   1.268       .  A
C108        C181   1.485       .  S
C109        O114   1.260       .  A
C109        O112   1.271       .  A
C109        C253   1.497       .  S
Cd110       O117   2.470       .  S
Cd110       O116   2.473       .  S
Cd110       O115   2.444       .  S
Cd110       O111   2.438       .  S
Cd110       O114   2.444       .  S
Cd110       O112   2.522       .  S
C113        O117   1.264       .  A
C113        C208   1.497       .  S
O118        C121   1.265       .  A
O118       Cd123   2.447       .  S
C119        O128   1.264       .  A
C119        O124   1.265       .  A
C119        C325   1.483       .  S
O120        C126   1.267       .  A
O120       Cd123   2.506       .  S
C121        O129   1.269       .  A
C121        C184   1.481       .  S
C122        O127   1.269       .  A
C122        O125   1.263       .  A
C122        C244   1.495       .  S
Cd123       O130   2.469       .  S
Cd123       O129   2.469       .  S
Cd123       O128   2.432       .  S
Cd123       O124   2.459       .  S
Cd123       O127   2.509       .  S
Cd123       O125   2.445       .  S
C126        O130   1.263       .  A
C126        C373   1.495       .  S
O131        C134   1.265       .  A
O131       Cd136   2.428       .  S
C132        O141   1.264       .  A
C132        O137   1.265       .  A
C132        C172   1.483       .  S
O133        C139   1.268       .  A
O133       Cd136   2.500       .  S
C134        O142   1.269       .  A
C134        C160   1.479       .  S
C135        O140   1.271       .  A
C135        O138   1.262       .  A
C135        C196   1.495       .  S
Cd136       O143   2.452       .  S
Cd136       O142   2.462       .  S
Cd136       O141   2.420       .  S
Cd136       O137   2.464       .  S
Cd136       O140   2.521       .  S
Cd136       O138   2.436       .  S
C139        O143   1.263       .  A
C139        C265   1.490       .  S
O144        C147   1.266       .  A
O144       Cd149   2.450       .  S
C145        O154   1.263       .  A
C145        O150   1.266       .  A
C145        C316   1.485       .  S
O146        C152   1.268       .  A
O146       Cd149   2.499       .  S
C147        O155   1.268       .  A
C147        C157   1.478       .  S
C148        O153   1.271       .  A
C148        O151   1.262       .  A
C148        C217   1.498       .  S
Cd149       O156   2.465       .  S
Cd149       O155   2.456       .  S
Cd149       O154   2.441       .  S
Cd149       O150   2.463       .  S
Cd149       O153   2.519       .  S
Cd149       O151   2.439       .  S
C152        O156   1.263       .  A
C152        C409   1.492       .  S
C157        C158   1.403       .  A
C157        C162   1.413       .  A
C158        C159   1.399       .  A
C158        H163   1.085       .  S
C159        C160   1.414       .  A
C159        C166   1.445       .  S
C160        C161   1.404       .  A
C161        C162   1.400       .  A
C161        H164   1.085       .  S
C162        C165   1.444       .  S
C165        N167   1.157       .  T
C166        N168   1.157       .  T
C169        C170   1.406       .  A
C169        C174   1.414       .  A
C170        C171   1.400       .  A
C170        H175   1.085       .  S
C171        C172   1.415       .  A
C171        C178   1.445       .  S
C172        C173   1.405       .  A
C173        C174   1.395       .  A
C173        H176   1.085       .  S
C174        C177   1.444       .  S
C177        N179   1.157       .  T
C178        N180   1.158       .  T
C181        C182   1.406       .  A
C181        C186   1.415       .  A
C182        C183   1.399       .  A
C182        H187   1.085       .  S
C183        C184   1.413       .  A
C183        C190   1.445       .  S
C184        C185   1.404       .  A
C185        C186   1.402       .  A
C185        H188   1.085       .  S
C186        C189   1.443       .  S
C189        N191   1.157       .  T
C190        N192   1.157       .  T
C193        C198   1.423       .  A
C193        C638   1.405   1_545  A
C194        C195   1.405       .  A
C194        C637   1.405       .  A
C194        H199   1.084       .  S
C195        C196   1.419       .  A
C195        C202   1.445       .  S
C196        C641   1.403       .  A
C197        C198   1.405       .  A
C197        C640   1.403   1_545  A
C197        H200   1.085       .  S
C198        C201   1.444       .  S
C201        N203   1.158       .  T
C202        N204   1.157       .  T
C205        C206   1.406       .  A
C205        C210   1.416       .  A
C206        C207   1.408       .  A
C206        H211   1.084       .  S
C207        C208   1.418       .  A
C207        C214   1.445       .  S
C208        C209   1.405       .  A
C209        C210   1.405       .  A
C209        H212   1.084       .  S
C210        C213   1.443       .  S
C213        N215   1.157       .  T
C214        N216   1.158       .  T
C217        C218   1.405       .  A
C217        C222   1.421       .  A
C218        C219   1.405       .  A
C218        H223   1.084       .  S
C219        C220   1.419       .  A
C219        C226   1.445       .  S
C220        C221   1.403       .  A
C221        C222   1.404       .  A
C221        H224   1.084       .  S
C222        C225   1.444       .  S
C225        N227   1.157       .  T
C226        N228   1.157       .  T
C229        C230   1.408       .  A
C229        C234   1.417       .  A
C230        C231   1.399       .  A
C230        H235   1.084       .  S
C231        C232   1.410       .  A
C231        C238   1.446       .  S
C232        C233   1.402       .  A
C233        C234   1.404       .  A
C233        H236   1.084       .  S
C234        C237   1.443       .  S
C237        N239   1.157       .  T
C238        N240   1.157       .  T
C241        C242   1.410       .  A
C241        C246   1.414       .  A
C242        C243   1.405       .  A
C242        H247   1.085       .  S
C243        C244   1.414       .  A
C243        C250   1.444       .  S
C244        C245   1.409       .  A
C245        C246   1.403       .  A
C245        H248   1.085       .  S
C246        C249   1.444       .  S
C249        N251   1.157       .  T
C250        N252   1.157       .  T
C253        C258   1.421       .  A
C253       C1142   1.403   1_455  A
C254        C255   1.403       .  A
C254       C1141   1.403       .  A
C254        H259   1.085       .  S
C255        C256   1.421       .  A
C255        C262   1.445       .  S
C256        C257   1.404       .  A
C257       C1146   1.405       .  A
C257        H260   1.085       .  S
C258       C1145   1.405   1_455  A
C258        C261   1.445       .  S
C261        N263   1.158       .  T
C262        N264   1.157       .  T
C265        C266   1.405       .  A
C265        C270   1.415       .  A
C266        C267   1.403       .  A
C266        H271   1.084       .  S
C267        C268   1.417       .  A
C267        C274   1.444       .  S
C268        C269   1.405       .  A
C269        C270   1.404       .  A
C269        H272   1.084       .  S
C270        C273   1.444       .  S
C273        N275   1.157       .  T
C274        N276   1.157       .  T
C277        C278   1.403       .  A
C277        C282   1.412       .  A
C278        C279   1.398       .  A
C278        H283   1.085       .  S
C279        C280   1.416       .  A
C279        C286   1.445       .  S
C280        C281   1.405       .  A
C281        C282   1.398       .  A
C281        H284   1.085       .  S
C282        C285   1.444       .  S
C285        N287   1.157       .  T
C286        N288   1.157       .  T
C289        C290   1.404       .  A
C289        C294   1.411       .  A
C290        C291   1.405       .  A
C290        H295   1.085       .  S
C291        C292   1.416       .  A
C291        C298   1.444       .  S
C292        C293   1.406       .  A
C293        C294   1.398       .  A
C293        H296   1.084       .  S
C294        C297   1.445       .  S
C297        N299   1.157       .  T
C298        N300   1.157       .  T
C301        C302   1.406   1_556  A
C301        C306   1.415       .  A
C302        C747   1.407       .  A
C302        H307   1.084       .  S
C303        C304   1.416   1_565  A
C303        C746   1.407       .  A
C303        C310   1.444       .  S
C304        C305   1.404   1_554  A
C305        C750   1.402       .  A
C305        H308   1.084       .  S
C306        C749   1.402       .  A
C306        C309   1.444       .  S
C309        N311   1.157       .  T
C310        N312   1.157       .  T
C313        C314   1.405       .  A
C313        C318   1.415   1_556  A
C314        C315   1.398       .  A
C314        H319   1.085       .  S
C315        C316   1.415   1_556  A
C315        C322   1.445       .  S
C316        C317   1.405       .  A
C317        C318   1.400       .  A
C317        H320   1.085       .  S
C318        C321   1.444       .  S
C321        N323   1.157       .  T
C322        N324   1.157       .  T
C325        C326   1.407       .  A
C325        C330   1.416       .  A
C326        C327   1.396       .  A
C326        H331   1.084       .  S
C327        C328   1.409       .  A
C327        C334   1.445       .  S
C328        C329   1.402       .  A
C329        C330   1.399       .  A
C329        H332   1.085       .  S
C330        C333   1.444       .  S
C333        N335   1.157       .  T
C334        N336   1.157       .  T
C337        C342   1.414       .  A
C337       C1226   1.406   1_455  A
C338        C339   1.404       .  A
C338       C1225   1.406       .  A
C338        H343   1.085       .  S
C339        C340   1.416       .  A
C339        C346   1.444       .  S
C340        C341   1.408       .  A
C341       C1230   1.405       .  A
C341        H344   1.085       .  S
C342       C1229   1.405   1_455  A
C342        C345   1.444       .  S
C345        N347   1.157       .  T
C346        N348   1.157       .  T
C349        C350   1.406       .  A
C349        C354   1.415       .  A
C350        C351   1.398       .  A
C350        H355   1.085       .  S
C351        C352   1.411       .  A
C351        C358   1.445       .  S
C352        C353   1.404       .  A
C353        C354   1.405       .  A
C353        H356   1.085       .  S
C354        C357   1.443       .  S
C357        N359   1.157       .  T
C358        N360   1.157       .  T
C361        C366   1.421       .  A
C361        C806   1.403   1_545  A
C362        C363   1.404       .  A
C362        C805   1.403       .  A
C362        H367   1.085       .  S
C363        C364   1.420       .  A
C363        C370   1.445       .  S
C364        C365   1.403       .  A
C365        C810   1.406       .  A
C365        H368   1.085       .  S
C366        C809   1.406       .  A
C366        C369   1.445       .  S
C369        N371   1.158       .  T
C370        N372   1.157       .  T
C373        C374   1.406       .  A
C373       C1266   1.417   1_455  A
C374       C1263   1.405   1_455  A
C374        H379   1.084       .  S
C375        C376   1.416       .  A
C375       C1262   1.405       .  A
C375        C382   1.444       .  S
C376        C377   1.406       .  A
C377        C378   1.405       .  A
C377        H380   1.084       .  S
C378       C1261   1.417       .  A
C378        C381   1.444       .  S
C381        N383   1.157       .  T
C382        N384   1.157       .  T
C385        C386   1.405       .  A
C385        C390   1.417       .  A
C386        C387   1.399       .  A
C386        H391   1.085       .  S
C387        C388   1.414       .  A
C387        C394   1.444       .  S
C388        C389   1.403       .  A
C389        C390   1.399       .  A
C389        H392   1.085       .  S
C390        C393   1.445       .  S
C393        N395   1.158       .  T
C394        N396   1.157       .  T
C397        C398   1.410       .  A
C397        C402   1.414       .  A
C398       C1287   1.403       .  A
C398        H403   1.084       .  S
C399        C400   1.414   1_655  A
C399       C1286   1.403       .  A
C399        C406   1.444       .  S
C400       C1289   1.410       .  A
C401        C402   1.404       .  A
C401       C1288   1.410       .  A
C401       H1292   1.084       .  S
C402        C405   1.444       .  S
H404       C1289   1.084       .  S
C405        N407   1.157       .  T
C406        N408   1.157       .  T
C409        C410   1.404   1_554  A
C409        C414   1.416       .  A
C410        C411   1.402       .  A
C410        H415   1.085       .  S
C411        C856   1.416       .  A
C411        C418   1.444       .  S
C412        C413   1.407   1_556  A
C412        C855   1.416   1_545  A
C413        C858   1.407   1_545  A
C413        H416   1.084       .  S
C414        C857   1.407       .  A
C414        C417   1.444       .  S
C417        N863   1.157       .  T
C418        N420   1.157       .  T
N419        C861   1.157       .  T
C421        C422   1.406       .  A
C421        C426   1.418   1_556  A
C422        C423   1.399       .  A
C422        H427   1.085       .  S
C423        C424   1.413   1_556  A
C423        C430   1.445       .  S
C424        C425   1.404       .  A
C425        C426   1.402       .  A
C425        H428   1.085       .  S
C426        C429   1.445       .  S
C429        N431   1.158       .  T
C430        N432   1.157       .  T
C433        C434   1.406       .  A
C433        C438   1.417       .  A
C434        C435   1.403       .  A
C434        H439   1.084       .  S
C435        C436   1.413       .  A
C435        C442   1.444       .  S
C436        C437   1.405       .  A
C437        C438   1.403       .  A
C437        H440   1.085       .  S
C438        C441   1.445       .  S
C441        N443   1.157       .  T
C442        N444   1.157       .  T
O445        C448   1.268       .  A
O445       Cd450   2.463       .  S
C446        O455   1.267       .  A
C446        O451   1.266       .  A
C446        C877   1.491       .  S
O447        C453   1.270       .  A
O447       Cd450   2.508       .  S
C448        O456   1.265       .  A
C448        C865   1.489       .  S
C449        O454   1.269       .  A
C449        O452   1.264       .  A
C449        C856   1.493       .  S
Cd450       O457   2.445       .  S
Cd450       O456   2.453       .  S
Cd450       O455   2.484       .  S
Cd450       O451   2.469       .  S
Cd450       O454   2.525       .  S
Cd450       O452   2.444       .  S
C453        O457   1.263       .  A
C453        C841   1.495       .  S
O458        C461   1.267       .  A
O458       Cd463   2.457       .  S
C459        O468   1.268       .  A
C459        O464   1.266       .  A
C459        C880   1.488       .  S
O460        C466   1.259       .  A
O460       Cd463   2.442       .  S
C461        O469   1.264       .  A
C461        C829   1.485       .  S
C462        O467   1.268       .  A
C462        O465   1.264       .  A
C462        C820   1.494       .  S
Cd463       O470   2.542       .  S
Cd463       O469   2.434       .  S
Cd463       O468   2.476       .  S
Cd463       O464   2.462       .  S
Cd463       O467   2.514       .  S
Cd463       O465   2.472       .  S
C466        O470   1.270       .  A
C466        C805   1.497       .  S
O471        C474   1.265       .  A
O471       Cd476   2.431       .  S
C472        O481   1.264       .  A
C472        O477   1.266       .  A
C472        C772   1.472       .  S
O473        C479   1.269       .  A
O473       Cd476   2.500       .  S
C474        O482   1.269       .  A
C474        C793   1.486       .  S
C475        O480   1.272       .  A
C475        O478   1.261       .  A
C475        C808   1.495       .  S
Cd476       O483   2.455       .  S
Cd476       O482   2.494       .  S
Cd476       O481   2.435       .  S
Cd476       O477   2.451       .  S
Cd476       O480   2.532       .  S
Cd476       O478   2.430       .  S
C479        O483   1.265       .  A
C479        C781   1.491       .  S
O484        C487   1.264       .  A
O484       Cd489   2.446       .  S
C485        O494   1.265       .  A
C485        O490   1.266       .  A
C485        C757   1.485       .  S
O486        C492   1.269       .  A
O486       Cd489   2.525       .  S
C487        O495   1.267       .  A
C487        C796   1.479       .  S
C488        O493   1.262       .  A
C488        O491   1.270       .  A
C488        C844   1.496       .  S
Cd489       O496   2.443       .  S
Cd489       O495   2.484       .  S
Cd489       O494   2.452       .  S
Cd489       O490   2.442       .  S
Cd489       O493   2.446       .  S
Cd489       O491   2.516       .  S
C492        O496   1.263       .  A
C492        C745   1.492       .  S
O497        C500   1.266       .  A
O497       Cd502   2.448       .  S
C498        O507   1.268       .  A
C498        O503   1.265       .  A
C498        C733   1.480       .  S
O499        C505   1.271       .  A
O499       Cd502   2.531       .  S
C500        O508   1.265       .  A
C500        C721   1.478       .  S
C501        O506   1.270       .  A
C501        O504   1.264       .  A
C501        C712   1.492       .  S
Cd502       O509   2.431       .  S
Cd502       O508   2.449       .  S
Cd502       O507   2.489       .  S
Cd502       O503   2.440       .  S
Cd502       O506   2.503       .  S
Cd502       O504   2.447       .  S
C505        O509   1.260       .  A
C505        C700   1.497       .  S
O510        C513   1.266       .  A
O510       Cd515   2.445       .  S
C511        O520   1.264       .  A
C511        O516   1.267       .  A
C511        C832   1.482       .  S
O512        C518   1.267       .  A
O512       Cd515   2.495       .  S
C513        O521   1.268       .  A
C513        C736   1.488       .  S
C514        O519   1.269       .  A
C514        O517   1.262       .  A
C514        C685   1.496       .  S
Cd515       O522   2.473       .  S
Cd515       O521   2.481       .  S
Cd515       O520   2.446       .  S
Cd515       O516   2.460       .  S
Cd515       O519   2.509       .  S
Cd515       O517   2.461       .  S
C518        O522   1.264       .  A
C518        C784   1.495       .  S
O523        C526   1.264       .  A
O523       Cd528   2.431       .  S
C524        O533   1.264       .  A
C524        O529   1.266       .  A
C524        C868   1.483       .  S
O525        C531   1.269       .  A
O525       Cd528   2.495       .  S
C526        O534   1.267       .  A
C526        C676   1.477       .  S
C527        O532   1.270       .  A
C527        O530   1.260       .  A
C527        C664   1.494       .  S
Cd528       O535   2.468       .  S
Cd528       O534   2.486       .  S
Cd528       O533   2.446       .  S
Cd528       O529   2.481       .  S
Cd528       O532   2.526       .  S
Cd528       O530   2.447       .  S
C531        O535   1.265       .  A
C531        C748   1.492       .  S
O536        C539   1.266       .  A
O536       Cd541   2.439       .  S
C537        O546   1.264       .  A
C537        O542   1.267       .  A
C537        C724   1.481       .  S
O538        C544   1.270       .  A
O538       Cd541   2.531       .  S
C539        O547   1.269       .  A
C539        C673   1.492       .  S
C540        O545   1.273       .  A
C540        O543   1.261       .  A
C540        C637   1.501       .  S
Cd541       O548   2.458       .  S
Cd541       O547   2.492       .  S
Cd541       O546   2.432       .  S
Cd541       O542   2.442       .  S
Cd541       O545   2.536       .  S
Cd541       O543   2.446       .  S
C544        O548   1.263       .  A
C544        C649   1.496       .  S
O549        C552   1.266       .  A
O549       Cd554   2.441       .  S
C550        O559   1.266       .  A
C550        O555   1.266       .  A
C550        C613   1.482       .  S
O551        C557   1.270       .  A
O551       Cd554   2.512       .  S
C552        O560   1.268       .  A
C552        C625   1.485       .  S
C553        O558   1.260       .  A
C553        O556   1.271       .  A
C553        C697   1.497       .  S
Cd554       O561   2.470       .  S
Cd554       O560   2.473       .  S
Cd554       O559   2.442       .  S
Cd554       O555   2.438       .  S
Cd554       O558   2.445       .  S
Cd554       O556   2.521       .  S
C557        O561   1.264       .  A
C557        C652   1.497       .  S
O562        C565   1.265       .  A
O562       Cd567   2.448       .  S
C563        O572   1.264       .  A
C563        O568   1.265       .  A
C563        C769   1.483       .  S
O564        C570   1.267       .  A
O564       Cd567   2.506       .  S
C565        O573   1.269       .  A
C565        C628   1.481       .  S
C566        O571   1.269       .  A
C566        O569   1.263       .  A
C566        C688   1.495       .  S
Cd567       O574   2.469       .  S
Cd567       O573   2.468       .  S
Cd567       O572   2.433       .  S
Cd567       O568   2.459       .  S
Cd567       O571   2.509       .  S
Cd567       O569   2.445       .  S
C570        O574   1.263       .  A
C570        C817   1.495       .  S
O575        C578   1.265       .  A
O575       Cd580   2.427       .  S
C576        O585   1.264       .  A
C576        O581   1.265       .  A
C576        C616   1.483       .  S
O577        C583   1.268       .  A
O577       Cd580   2.500       .  S
C578        O586   1.269       .  A
C578        C604   1.478       .  S
C579        O584   1.271       .  A
C579        O582   1.262       .  A
C579        C640   1.495       .  S
Cd580       O587   2.451       .  S
Cd580       O586   2.462       .  S
Cd580       O585   2.420       .  S
Cd580       O581   2.464       .  S
Cd580       O584   2.521       .  S
Cd580       O582   2.436       .  S
C583        O587   1.263       .  A
C583        C709   1.490       .  S
O588        C591   1.266       .  A
O588       Cd593   2.451       .  S
C589        O598   1.263       .  A
C589        O594   1.266       .  A
C589        C760   1.484       .  S
O590        C596   1.268       .  A
O590       Cd593   2.499       .  S
C591        O599   1.268       .  A
C591        C601   1.478       .  S
C592        O597   1.271       .  A
C592        O595   1.262       .  A
C592        C661   1.498       .  S
Cd593       O600   2.466       .  S
Cd593       O599   2.455       .  S
Cd593       O598   2.440       .  S
Cd593       O594   2.464       .  S
Cd593       O597   2.520       .  S
Cd593       O595   2.440       .  S
C596        O600   1.263       .  A
C596        C853   1.492       .  S
C601        C602   1.403       .  A
C601        C606   1.413       .  A
C602        C603   1.399       .  A
C602        H607   1.085       .  S
C603        C604   1.414       .  A
C603        C610   1.445       .  S
C604        C605   1.404       .  A
C605        C606   1.400       .  A
C605        H608   1.085       .  S
C606        C609   1.444       .  S
C609        N611   1.157       .  T
C610        N612   1.157       .  T
C613        C614   1.406       .  A
C613        C618   1.414       .  A
C614        C615   1.400       .  A
C614        H619   1.085       .  S
C615        C616   1.415       .  A
C615        C622   1.445       .  S
C616        C617   1.405       .  A
C617        C618   1.395       .  A
C617        H620   1.085       .  S
C618        C621   1.444       .  S
C621        N623   1.157       .  T
C622        N624   1.158       .  T
C625        C626   1.406       .  A
C625        C630   1.415       .  A
C626        C627   1.399       .  A
C626        H631   1.085       .  S
C627        C628   1.413       .  A
C627        C634   1.445       .  S
C628        C629   1.404       .  A
C629        C630   1.402       .  A
C629        H632   1.085       .  S
C630        C633   1.443       .  S
C633        N635   1.157       .  T
C634        N636   1.157       .  T
C637        C642   1.423       .  A
C638        C639   1.405       .  A
C638        H643   1.084       .  S
C639        C640   1.419       .  A
C639        C646   1.445       .  S
C641        C642   1.405       .  A
C641        H644   1.085       .  S
C642        C645   1.444       .  S
C645        N647   1.157       .  T
C646        N648   1.157       .  T
C649        C650   1.406       .  A
C649        C654   1.416       .  A
C650        C651   1.408       .  A
C650        H655   1.084       .  S
C651        C652   1.418       .  A
C651        C658   1.445       .  S
C652        C653   1.405       .  A
C653        C654   1.405       .  A
C653        H656   1.084       .  S
C654        C657   1.443       .  S
C657        N659   1.157       .  T
C658        N660   1.158       .  T
C661        C662   1.405       .  A
C661        C666   1.421       .  A
C662        C663   1.405       .  A
C662        H667   1.084       .  S
C663        C664   1.419       .  A
C663        C670   1.445       .  S
C664        C665   1.403       .  A
C665        C666   1.404       .  A
C665        H668   1.084       .  S
C666        C669   1.444       .  S
C669        N671   1.157       .  T
C670        N672   1.157       .  T
C673        C674   1.408       .  A
C673        C678   1.418       .  A
C674        C675   1.399       .  A
C674        H679   1.084       .  S
C675        C676   1.410       .  A
C675        C682   1.446       .  S
C676        C677   1.402       .  A
C677        C678   1.404       .  A
C677        H680   1.084       .  S
C678        C681   1.443       .  S
C681        N683   1.157       .  T
C682        N684   1.157       .  T
C685        C686   1.410       .  A
C685        C690   1.414       .  A
C686        C687   1.405       .  A
C686        H691   1.085       .  S
C687        C688   1.414       .  A
C687        C694   1.444       .  S
C688        C689   1.409       .  A
C689        C690   1.403       .  A
C689        H692   1.085       .  S
C690        C693   1.444       .  S
C693        N695   1.157       .  T
C694        N696   1.157       .  T
C697       C1586   1.403   1_455  A
C697        C702   1.421       .  A
C698       C1585   1.403       .  A
C698        C699   1.403       .  A
C698        H703   1.085       .  S
C699        C700   1.421       .  A
C699        C706   1.445       .  S
C700        C701   1.404       .  A
C701       C1590   1.405       .  A
C701        H704   1.085       .  S
C702       C1589   1.405   1_455  A
C702        C705   1.445       .  S
C705        N707   1.158       .  T
C706        N708   1.157       .  T
C709        C710   1.405       .  A
C709        C714   1.415       .  A
C710        C711   1.403       .  A
C710        H715   1.084       .  S
C711        C712   1.417       .  A
C711        C718   1.444       .  S
C712        C713   1.405       .  A
C713        C714   1.404       .  A
C713        H716   1.084       .  S
C714        C717   1.444       .  S
C717        N719   1.157       .  T
C718        N720   1.157       .  T
C721        C722   1.403       .  A
C721        C726   1.412       .  A
C722        C723   1.398       .  A
C722        H727   1.085       .  S
C723        C724   1.416       .  A
C723        C730   1.445       .  S
C724        C725   1.405       .  A
C725        C726   1.398       .  A
C725        H728   1.085       .  S
C726        C729   1.444       .  S
C729        N731   1.157       .  T
C730        N732   1.157       .  T
C733        C734   1.404       .  A
C733        C738   1.411       .  A
C734        C735   1.405       .  A
C734        H739   1.084       .  S
C735        C736   1.416       .  A
C735        C742   1.444       .  S
C736        C737   1.406       .  A
C737        C738   1.398       .  A
C737        H740   1.084       .  S
C738        C741   1.445       .  S
C741        N743   1.157       .  T
C742        N744   1.157       .  T
C745        C746   1.406   1_556  A
C745        C750   1.415   1_565  A
C746        H751   1.084       .  S
C747        C748   1.416       .  A
C747        C754   1.444       .  S
C748        C749   1.404   1_554  A
C749        H752   1.084       .  S
C750        C753   1.444       .  S
C753        N755   1.157       .  T
C754        N756   1.157       .  T
C757        C758   1.405       .  A
C757        C762   1.415   1_556  A
C758        C759   1.398       .  A
C758        H763   1.085       .  S
C759        C760   1.415   1_556  A
C759        C766   1.445       .  S
C760        C761   1.405       .  A
C761        C762   1.400       .  A
C761        H764   1.085       .  S
C762        C765   1.444       .  S
C765        N767   1.157       .  T
C766        N768   1.157       .  T
C769        C770   1.407       .  A
C769        C774   1.416       .  A
C770        C771   1.396       .  A
C770        H775   1.084       .  S
C771        C772   1.409       .  A
C771        C778   1.445       .  S
C772        C773   1.402       .  A
C773        C774   1.399       .  A
C773        H776   1.085       .  S
C774        C777   1.444       .  S
C777        N779   1.157       .  T
C778        N780   1.157       .  T
C781       C1670   1.406   1_455  A
C781        C786   1.414       .  A
C782       C1669   1.406       .  A
C782        C783   1.404       .  A
C782        H787   1.085       .  S
C783        C784   1.416       .  A
C783        C790   1.444       .  S
C784        C785   1.408       .  A
C785       C1674   1.405       .  A
C785        H788   1.085       .  S
C786       C1673   1.405   1_455  A
C786        C789   1.444       .  S
C789        N791   1.157       .  T
C790        N792   1.157       .  T
C793        C794   1.406       .  A
C793        C798   1.415       .  A
C794        C795   1.398       .  A
C794        H799   1.085       .  S
C795        C796   1.411       .  A
C795        C802   1.445       .  S
C796        C797   1.404       .  A
C797        C798   1.405       .  A
C797        H800   1.085       .  S
C798        C801   1.443       .  S
C801        N803   1.157       .  T
C802        N804   1.157       .  T
C805        C810   1.421       .  A
C806        C807   1.404       .  A
C806        H811   1.085       .  S
C807        C808   1.420       .  A
C807        C814   1.445       .  S
C808        C809   1.403   1_565  A
C809        H812   1.085       .  S
C810        C813   1.445       .  S
C813        N815   1.158       .  T
C814        N816   1.157       .  T
C817        C818   1.406       .  A
C817       C1710   1.417   1_455  A
C818       C1707   1.405   1_455  A
C818        H823   1.084       .  S
C819       C1706   1.405       .  A
C819        C820   1.416       .  A
C819        C826   1.444       .  S
C820        C821   1.406       .  A
C821        C822   1.405       .  A
C821        H824   1.084       .  S
C822       C1705   1.417       .  A
C822        C825   1.444       .  S
C825        N827   1.157       .  T
C826        N828   1.157       .  T
C829        C830   1.405       .  A
C829        C834   1.417       .  A
C830        C831   1.399       .  A
C830        H835   1.085       .  S
C831        C832   1.414       .  A
C831        C838   1.444       .  S
C832        C833   1.403       .  A
C833        C834   1.399       .  A
C833        H836   1.085       .  S
C834        C837   1.445       .  S
C837        N839   1.157       .  T
C838        N840   1.157       .  T
C841        C842   1.410       .  A
C841        C846   1.414       .  A
C842       C1731   1.404       .  A
C842        H847   1.084       .  S
C843       C1730   1.404       .  A
C843        C844   1.414   1_655  A
C843        C850   1.444       .  S
C844       C1733   1.410       .  A
C845       C1732   1.410       .  A
C845        C846   1.404       .  A
C845       H1736   1.084       .  S
C846        C849   1.444       .  S
H848       C1733   1.084       .  S
C849        N851   1.157       .  T
C850        N852   1.157       .  T
C853        C854   1.404   1_554  A
C853        C858   1.416       .  A
C854        C855   1.402       .  A
C854        H859   1.084       .  S
C855        C862   1.444       .  S
C856        C857   1.407   1_556  A
C857        H860   1.084       .  S
C858        C861   1.444   1_565  S
C862        N864   1.157       .  T
C865        C866   1.406       .  A
C865        C870   1.418   1_556  A
C866        C867   1.399       .  A
C866        H871   1.085       .  S
C867        C868   1.413   1_556  A
C867        C874   1.445       .  S
C868        C869   1.404       .  A
C869        C870   1.402       .  A
C869        H872   1.085       .  S
C870        C873   1.445       .  S
C873        N875   1.158       .  T
C874        N876   1.157       .  T
C877        C878   1.406       .  A
C877        C882   1.417       .  A
C878        C879   1.403       .  A
C878        H883   1.084       .  S
C879        C880   1.413       .  A
C879        C886   1.444       .  S
C880        C881   1.405       .  A
C881        C882   1.403       .  A
C881        H884   1.085       .  S
C882        C885   1.445       .  S
C885        N887   1.157       .  T
C886        N888   1.157       .  T
O889        C892   1.268       .  A
O889       Cd894   2.464       .  S
C890        O899   1.268       .  A
C890        O895   1.266       .  A
C890       C1321   1.491       .  S
O891        C897   1.270       .  A
O891       Cd894   2.508       .  S
C892        O900   1.265       .  A
C892       C1309   1.490       .  S
C893        O898   1.269       .  A
C893        O896   1.264       .  A
C893       C1300   1.493       .  S
Cd894       O901   2.444       .  S
Cd894       O900   2.453       .  S
Cd894       O899   2.484       .  S
Cd894       O895   2.469       .  S
Cd894       O898   2.525       .  S
Cd894       O896   2.446       .  S
C897        O901   1.263       .  A
C897       C1285   1.495       .  S
O902        C905   1.267       .  A
O902       Cd907   2.457       .  S
C903        O912   1.268       .  A
C903        O908   1.266       .  A
C903       C1324   1.488       .  S
O904        C910   1.259       .  A
O904       Cd907   2.442       .  S
C905        O913   1.264       .  A
C905       C1273   1.485       .  S
C906        O911   1.268       .  A
C906        O909   1.264       .  A
C906       C1264   1.494       .  S
Cd907       O914   2.541       .  S
Cd907       O913   2.435       .  S
Cd907       O912   2.476       .  S
Cd907       O908   2.463       .  S
Cd907       O911   2.514       .  S
Cd907       O909   2.473       .  S
C910        O914   1.270       .  A
C910       C1249   1.497       .  S
O915        C918   1.265       .  A
O915       Cd920   2.431       .  S
C916        O925   1.264       .  A
C916        O921   1.266       .  A
C916       C1216   1.472       .  S
O917        C923   1.269       .  A
O917       Cd920   2.500       .  S
C918        O926   1.269       .  A
C918       C1237   1.486       .  S
C919        O924   1.272       .  A
C919        O922   1.261       .  A
C919       C1252   1.495       .  S
Cd920       O927   2.455       .  S
Cd920       O926   2.493       .  S
Cd920       O925   2.435       .  S
Cd920       O921   2.450       .  S
Cd920       O924   2.532       .  S
Cd920       O922   2.431       .  S
C923        O927   1.265       .  A
C923       C1225   1.491       .  S
O928        C931   1.264       .  A
O928       Cd933   2.446       .  S
C929        O938   1.265       .  A
C929        O934   1.266       .  A
C929       C1201   1.485       .  S
O930        C936   1.269       .  A
O930       Cd933   2.524       .  S
C931        O939   1.267       .  A
C931       C1240   1.479       .  S
C932        O937   1.262       .  A
C932        O935   1.270       .  A
C932       C1288   1.496       .  S
Cd933       O940   2.444       .  S
Cd933       O939   2.483       .  S
Cd933       O938   2.452       .  S
Cd933       O934   2.442       .  S
Cd933       O937   2.446       .  S
Cd933       O935   2.516       .  S
C936        O940   1.264       .  A
C936       C1189   1.492       .  S
O941        C944   1.266       .  A
O941       Cd946   2.447       .  S
C942        O951   1.268       .  A
C942        O947   1.264       .  A
C942       C1177   1.480       .  S
O943        C949   1.271       .  A
O943       Cd946   2.531       .  S
C944        O952   1.265       .  A
C944       C1165   1.477       .  S
C945        O950   1.270       .  A
C945        O948   1.264       .  A
C945       C1156   1.491       .  S
Cd946       O953   2.431       .  S
Cd946       O952   2.448       .  S
Cd946       O951   2.489       .  S
Cd946       O947   2.440       .  S
Cd946       O950   2.504       .  S
Cd946       O948   2.446       .  S
C949        O953   1.260       .  A
C949       C1144   1.497       .  S
O954        C957   1.266       .  A
O954       Cd959   2.445       .  S
C955        O964   1.264       .  A
C955        O960   1.267       .  A
C955       C1276   1.481       .  S
O956        C962   1.267       .  A
O956       Cd959   2.495       .  S
C957        O965   1.268       .  A
C957       C1180   1.488       .  S
C958        O963   1.269       .  A
C958        O961   1.262       .  A
C958       C1129   1.496       .  S
Cd959       O966   2.473       .  S
Cd959       O965   2.481       .  S
Cd959       O964   2.446       .  S
Cd959       O960   2.460       .  S
Cd959       O963   2.509       .  S
Cd959       O961   2.460       .  S
C962        O966   1.264       .  A
C962       C1228   1.495       .  S
O967        C970   1.264       .  A
O967       Cd972   2.431       .  S
C968        O977   1.264       .  A
C968        O973   1.266       .  A
C968       C1312   1.483       .  S
O969        C975   1.269       .  A
O969       Cd972   2.495       .  S
C970        O978   1.267       .  A
C970       C1120   1.478       .  S
C971        O976   1.270       .  A
C971        O974   1.260       .  A
C971       C1108   1.494       .  S
Cd972       O979   2.468       .  S
Cd972       O978   2.485       .  S
Cd972       O977   2.446       .  S
Cd972       O973   2.481       .  S
Cd972       O976   2.527       .  S
Cd972       O974   2.447       .  S
C975        O979   1.265       .  A
C975       C1192   1.492       .  S
O980        C983   1.266       .  A
O980       Cd985   2.439       .  S
C981        O990   1.264       .  A
C981        O986   1.267       .  A
C981       C1168   1.480       .  S
O982        C988   1.270       .  A
O982       Cd985   2.531       .  S
C983        O991   1.269       .  A
C983       C1117   1.491       .  S
C984        O989   1.273       .  A
C984        O987   1.261       .  A
C984       C1081   1.501       .  S
Cd985       O992   2.457       .  S
Cd985       O991   2.491       .  S
Cd985       O990   2.432       .  S
Cd985       O986   2.441       .  S
Cd985       O989   2.535       .  S
Cd985       O987   2.446       .  S
C988        O992   1.263       .  A
C988       C1093   1.495       .  S
O993        C996   1.266       .  A
O993       Cd998   2.440       .  S
C994       O1003   1.266       .  A
C994        O999   1.266       .  A
C994       C1057   1.482       .  S
O995       C1001   1.270       .  A
O995       Cd998   2.511       .  S
C996       O1004   1.268       .  A
C996       C1069   1.485       .  S
C997       O1002   1.260       .  A
C997       O1000   1.271       .  A
C997       C1141   1.497       .  S
Cd998      O1005   2.470       .  S
Cd998      O1004   2.473       .  S
Cd998      O1003   2.444       .  S
Cd998       O999   2.438       .  S
Cd998      O1002   2.444       .  S
Cd998      O1000   2.522       .  S
C1001      O1005   1.264       .  A
C1001      C1096   1.497       .  S
O1006      C1009   1.265       .  A
O1006     Cd1011   2.447       .  S
C1007      O1016   1.264       .  A
C1007      O1012   1.265       .  A
C1007      C1213   1.483       .  S
O1008      C1014   1.267       .  A
O1008     Cd1011   2.506       .  S
C1009      O1017   1.269       .  A
C1009      C1072   1.481       .  S
C1010      O1015   1.269       .  A
C1010      O1013   1.263       .  A
C1010      C1132   1.495       .  S
Cd1011     O1018   2.469       .  S
Cd1011     O1017   2.469       .  S
Cd1011     O1016   2.432       .  S
Cd1011     O1012   2.459       .  S
Cd1011     O1015   2.509       .  S
Cd1011     O1013   2.445       .  S
C1014      O1018   1.263       .  A
C1014      C1261   1.495       .  S
O1019      C1022   1.265       .  A
O1019     Cd1024   2.428       .  S
C1020      O1029   1.264       .  A
C1020      O1025   1.265       .  A
C1020      C1060   1.483       .  S
O1021      C1027   1.268       .  A
O1021     Cd1024   2.500       .  S
C1022      O1030   1.269       .  A
C1022      C1048   1.479       .  S
C1023      O1028   1.271       .  A
C1023      O1026   1.262       .  A
C1023      C1084   1.495       .  S
Cd1024     O1031   2.452       .  S
Cd1024     O1030   2.462       .  S
Cd1024     O1029   2.420       .  S
Cd1024     O1025   2.464       .  S
Cd1024     O1028   2.521       .  S
Cd1024     O1026   2.436       .  S
C1027      O1031   1.263       .  A
C1027      C1153   1.490       .  S
O1032      C1035   1.266       .  A
O1032     Cd1037   2.450       .  S
C1033      O1042   1.263       .  A
C1033      O1038   1.266       .  A
C1033      C1204   1.485       .  S
O1034      C1040   1.268       .  A
O1034     Cd1037   2.499       .  S
C1035      O1043   1.268       .  A
C1035      C1045   1.478       .  S
C1036      O1041   1.271       .  A
C1036      O1039   1.262       .  A
C1036      C1105   1.498       .  S
Cd1037     O1044   2.465       .  S
Cd1037     O1043   2.456       .  S
Cd1037     O1042   2.441       .  S
Cd1037     O1038   2.463       .  S
Cd1037     O1041   2.519       .  S
Cd1037     O1039   2.439       .  S
C1040      O1044   1.263       .  A
C1040      C1297   1.492       .  S
C1045      C1046   1.403       .  A
C1045      C1050   1.413       .  A
C1046      C1047   1.399       .  A
C1046      H1051   1.085       .  S
C1047      C1048   1.414       .  A
C1047      C1054   1.445       .  S
C1048      C1049   1.404       .  A
C1049      C1050   1.400       .  A
C1049      H1052   1.085       .  S
C1050      C1053   1.444       .  S
C1053      N1055   1.157       .  T
C1054      N1056   1.157       .  T
C1057      C1058   1.406       .  A
C1057      C1062   1.414       .  A
C1058      C1059   1.400       .  A
C1058      H1063   1.085       .  S
C1059      C1060   1.415       .  A
C1059      C1066   1.445       .  S
C1060      C1061   1.405       .  A
C1061      C1062   1.395       .  A
C1061      H1064   1.085       .  S
C1062      C1065   1.444       .  S
C1065      N1067   1.157       .  T
C1066      N1068   1.158       .  T
C1069      C1070   1.406       .  A
C1069      C1074   1.415       .  A
C1070      C1071   1.399       .  A
C1070      H1075   1.085       .  S
C1071      C1072   1.413       .  A
C1071      C1078   1.445       .  S
C1072      C1073   1.404       .  A
C1073      C1074   1.402       .  A
C1073      H1076   1.085       .  S
C1074      C1077   1.443       .  S
C1077      N1079   1.157       .  T
C1078      N1080   1.157       .  T
C1081      C1526   1.405   1_545  A
C1081      C1086   1.423       .  A
C1082      C1525   1.405       .  A
C1082      C1083   1.405       .  A
C1082      H1087   1.084       .  S
C1083      C1084   1.419       .  A
C1083      C1090   1.445       .  S
C1084      C1529   1.403       .  A
C1085      C1528   1.403   1_545  A
C1085      C1086   1.405       .  A
C1085      H1088   1.085       .  S
C1086      C1089   1.444       .  S
C1089      N1091   1.158       .  T
C1090      N1092   1.157       .  T
C1093      C1094   1.406       .  A
C1093      C1098   1.416       .  A
C1094      C1095   1.408       .  A
C1094      H1099   1.084       .  S
C1095      C1096   1.418       .  A
C1095      C1102   1.445       .  S
C1096      C1097   1.405       .  A
C1097      C1098   1.405       .  A
C1097      H1100   1.084       .  S
C1098      C1101   1.443       .  S
C1101      N1103   1.157       .  T
C1102      N1104   1.158       .  T
C1105      C1106   1.405       .  A
C1105      C1110   1.421       .  A
C1106      C1107   1.405       .  A
C1106      H1111   1.084       .  S
C1107      C1108   1.419       .  A
C1107      C1114   1.445       .  S
C1108      C1109   1.403       .  A
C1109      C1110   1.404       .  A
C1109      H1112   1.084       .  S
C1110      C1113   1.444       .  S
C1113      N1115   1.157       .  T
C1114      N1116   1.157       .  T
C1117      C1118   1.408       .  A
C1117      C1122   1.417       .  A
C1118      C1119   1.399       .  A
C1118      H1123   1.084       .  S
C1119      C1120   1.410       .  A
C1119      C1126   1.446       .  S
C1120      C1121   1.402       .  A
C1121      C1122   1.404       .  A
C1121      H1124   1.084       .  S
C1122      C1125   1.443       .  S
C1125      N1127   1.157       .  T
C1126      N1128   1.157       .  T
C1129      C1130   1.410       .  A
C1129      C1134   1.414       .  A
C1130      C1131   1.405       .  A
C1130      H1135   1.085       .  S
C1131      C1132   1.414       .  A
C1131      C1138   1.444       .  S
C1132      C1133   1.409       .  A
C1133      C1134   1.403       .  A
C1133      H1136   1.085       .  S
C1134      C1137   1.444       .  S
C1137      N1139   1.157       .  T
C1138      N1140   1.157       .  T
C1141      C1146   1.421       .  A
C1142      C1143   1.403       .  A
C1142      H1147   1.085       .  S
C1143      C1144   1.421       .  A
C1143      C1150   1.445       .  S
C1144      C1145   1.404       .  A
C1145      H1148   1.085   1_655  S
C1146      C1149   1.445       .  S
C1149      N1151   1.158       .  T
C1150      N1152   1.157       .  T
C1153      C1154   1.405       .  A
C1153      C1158   1.415       .  A
C1154      C1155   1.403       .  A
C1154      H1159   1.084       .  S
C1155      C1156   1.417       .  A
C1155      C1162   1.444       .  S
C1156      C1157   1.405       .  A
C1157      C1158   1.404       .  A
C1157      H1160   1.084       .  S
C1158      C1161   1.444       .  S
C1161      N1163   1.157       .  T
C1162      N1164   1.157       .  T
C1165      C1166   1.403       .  A
C1165      C1170   1.412       .  A
C1166      C1167   1.398       .  A
C1166      H1171   1.085       .  S
C1167      C1168   1.416       .  A
C1167      C1174   1.445       .  S
C1168      C1169   1.405       .  A
C1169      C1170   1.398       .  A
C1169      H1172   1.085       .  S
C1170      C1173   1.444       .  S
C1173      N1175   1.157       .  T
C1174      N1176   1.157       .  T
C1177      C1178   1.404       .  A
C1177      C1182   1.411       .  A
C1178      C1179   1.405       .  A
C1178      H1183   1.085       .  S
C1179      C1180   1.416       .  A
C1179      C1186   1.444       .  S
C1180      C1181   1.406       .  A
C1181      C1182   1.398       .  A
C1181      H1184   1.084       .  S
C1182      C1185   1.445       .  S
C1185      N1187   1.157       .  T
C1186      N1188   1.157       .  T
C1189      C1190   1.406   1_556  A
C1189      C1194   1.415       .  A
C1190      C1635   1.407       .  A
C1190      H1195   1.084       .  S
C1191      C1634   1.407       .  A
C1191      C1192   1.416   1_565  A
C1191      C1198   1.444       .  S
C1192      C1193   1.404   1_554  A
C1193      C1638   1.402       .  A
C1193      H1196   1.084       .  S
C1194      C1637   1.402       .  A
C1194      C1197   1.444       .  S
C1197      N1199   1.157       .  T
C1198      N1200   1.157       .  T
C1201      C1202   1.405       .  A
C1201      C1206   1.415   1_556  A
C1202      C1203   1.398       .  A
C1202      H1207   1.085       .  S
C1203      C1204   1.415   1_556  A
C1203      C1210   1.445       .  S
C1204      C1205   1.405       .  A
C1205      C1206   1.400       .  A
C1205      H1208   1.085       .  S
C1206      C1209   1.444       .  S
C1209      N1211   1.157       .  T
C1210      N1212   1.157       .  T
C1213      C1214   1.407       .  A
C1213      C1218   1.416       .  A
C1214      C1215   1.396       .  A
C1214      H1219   1.084       .  S
C1215      C1216   1.409       .  A
C1215      C1222   1.445       .  S
C1216      C1217   1.402       .  A
C1217      C1218   1.399       .  A
C1217      H1220   1.085       .  S
C1218      C1221   1.444       .  S
C1221      N1223   1.157       .  T
C1222      N1224   1.157       .  T
C1225      C1230   1.414       .  A
C1226      C1227   1.404       .  A
C1226      H1231   1.085       .  S
C1227      C1228   1.416       .  A
C1227      C1234   1.444       .  S
C1228      C1229   1.408       .  A
C1229      H1232   1.085       .  S
C1230      C1233   1.444       .  S
C1233      N1235   1.157       .  T
C1234      N1236   1.157       .  T
C1237      C1238   1.406       .  A
C1237      C1242   1.415       .  A
C1238      C1239   1.398       .  A
C1238      H1243   1.085       .  S
C1239      C1240   1.411       .  A
C1239      C1246   1.445       .  S
C1240      C1241   1.404       .  A
C1241      C1242   1.405       .  A
C1241      H1244   1.085       .  S
C1242      C1245   1.443       .  S
C1245      N1247   1.157       .  T
C1246      N1248   1.157       .  T
C1249      C1694   1.403   1_545  A
C1249      C1254   1.421       .  A
C1250      C1693   1.403       .  A
C1250      C1251   1.404       .  A
C1250      H1255   1.085       .  S
C1251      C1252   1.420       .  A
C1251      C1258   1.445       .  S
C1252      C1253   1.403       .  A
C1253      C1698   1.406       .  A
C1253      H1256   1.085       .  S
C1254      C1697   1.406       .  A
C1254      C1257   1.445       .  S
C1257      N1259   1.158       .  T
C1258      N1260   1.157       .  T
C1261      C1262   1.406       .  A
C1262      H1267   1.084       .  S
C1263      C1264   1.416       .  A
C1263      C1270   1.444       .  S
C1264      C1265   1.406       .  A
C1265      C1266   1.405       .  A
C1265      H1268   1.084       .  S
C1266      C1269   1.444       .  S
C1269      N1271   1.157       .  T
C1270      N1272   1.157   1_655  T
C1273      C1274   1.405       .  A
C1273      C1278   1.417       .  A
C1274      C1275   1.399       .  A
C1274      H1279   1.085       .  S
C1275      C1276   1.414       .  A
C1275      C1282   1.444       .  S
C1276      C1277   1.403       .  A
C1277      C1278   1.399       .  A
C1277      H1280   1.085       .  S
C1278      C1281   1.445       .  S
C1281      N1283   1.158       .  T
C1282      N1284   1.157       .  T
C1285      C1286   1.410       .  A
C1285      C1290   1.414   1_655  A
C1286      H1291   1.084       .  S
C1287      C1288   1.414       .  A
C1287      C1294   1.444       .  S
C1289      C1290   1.404       .  A
C1290      C1293   1.444       .  S
C1293      N1295   1.157       .  T
C1294      N1296   1.157       .  T
C1297      C1298   1.404   1_554  A
C1297      C1302   1.416       .  A
C1298      C1299   1.402       .  A
C1298      H1303   1.085       .  S
C1299      C1744   1.416       .  A
C1299      C1306   1.444       .  S
C1300      C1743   1.416   1_545  A
C1300      C1301   1.407   1_556  A
C1301      C1746   1.407   1_545  A
C1301      H1304   1.084       .  S
C1302      C1745   1.407       .  A
C1302      C1305   1.444       .  S
C1305      N1751   1.157       .  T
C1306      N1308   1.157       .  T
N1307      C1749   1.157       .  T
C1309      C1310   1.406       .  A
C1309      C1314   1.418   1_556  A
C1310      C1311   1.399       .  A
C1310      H1315   1.085       .  S
C1311      C1312   1.413   1_556  A
C1311      C1318   1.445       .  S
C1312      C1313   1.404       .  A
C1313      C1314   1.402       .  A
C1313      H1316   1.085       .  S
C1314      C1317   1.445       .  S
C1317      N1319   1.158       .  T
C1318      N1320   1.157       .  T
C1321      C1322   1.406       .  A
C1321      C1326   1.417       .  A
C1322      C1323   1.403       .  A
C1322      H1327   1.084       .  S
C1323      C1324   1.413       .  A
C1323      C1330   1.444       .  S
C1324      C1325   1.405       .  A
C1325      C1326   1.403       .  A
C1325      H1328   1.085       .  S
C1326      C1329   1.445       .  S
C1329      N1331   1.157       .  T
C1330      N1332   1.157       .  T
O1333      C1336   1.268       .  A
O1333     Cd1338   2.463       .  S
C1334      O1343   1.267       .  A
C1334      O1339   1.266       .  A
C1334      C1765   1.491       .  S
O1335      C1341   1.270       .  A
O1335     Cd1338   2.508       .  S
C1336      O1344   1.265       .  A
C1336      C1753   1.489       .  S
C1337      O1342   1.269       .  A
C1337      O1340   1.264       .  A
C1337      C1744   1.493       .  S
Cd1338     O1345   2.445       .  S
Cd1338     O1344   2.453       .  S
Cd1338     O1343   2.484       .  S
Cd1338     O1339   2.469       .  S
Cd1338     O1342   2.525       .  S
Cd1338     O1340   2.444       .  S
C1341      O1345   1.263       .  A
C1341      C1729   1.495       .  S
O1346      C1349   1.267       .  A
O1346     Cd1351   2.457       .  S
C1347      O1356   1.268       .  A
C1347      O1352   1.266       .  A
C1347      C1768   1.488       .  S
O1348      C1354   1.259       .  A
O1348     Cd1351   2.442       .  S
C1349      O1357   1.264       .  A
C1349      C1717   1.485       .  S
C1350      O1355   1.268       .  A
C1350      O1353   1.264       .  A
C1350      C1708   1.494       .  S
Cd1351     O1358   2.542       .  S
Cd1351     O1357   2.434       .  S
Cd1351     O1356   2.476       .  S
Cd1351     O1352   2.462       .  S
Cd1351     O1355   2.514       .  S
Cd1351     O1353   2.472       .  S
C1354      O1358   1.270       .  A
C1354      C1693   1.497       .  S
O1359      C1362   1.265       .  A
O1359     Cd1364   2.431       .  S
C1360      O1369   1.264       .  A
C1360      O1365   1.266       .  A
C1360      C1660   1.472       .  S
O1361      C1367   1.269       .  A
O1361     Cd1364   2.500       .  S
C1362      O1370   1.269       .  A
C1362      C1681   1.486       .  S
C1363      O1368   1.272       .  A
C1363      O1366   1.261       .  A
C1363      C1696   1.495       .  S
Cd1364     O1371   2.455       .  S
Cd1364     O1370   2.494       .  S
Cd1364     O1369   2.435       .  S
Cd1364     O1365   2.451       .  S
Cd1364     O1368   2.532       .  S
Cd1364     O1366   2.430       .  S
C1367      O1371   1.265       .  A
C1367      C1669   1.491       .  S
O1372      C1375   1.264       .  A
O1372     Cd1377   2.446       .  S
C1373      O1382   1.265       .  A
C1373      O1378   1.266       .  A
C1373      C1645   1.485       .  S
O1374      C1380   1.269       .  A
O1374     Cd1377   2.525       .  S
C1375      O1383   1.267       .  A
C1375      C1684   1.479       .  S
C1376      O1381   1.262       .  A
C1376      O1379   1.270       .  A
C1376      C1732   1.496       .  S
Cd1377     O1384   2.443       .  S
Cd1377     O1383   2.484       .  S
Cd1377     O1382   2.452       .  S
Cd1377     O1378   2.442       .  S
Cd1377     O1381   2.446       .  S
Cd1377     O1379   2.516       .  S
C1380      O1384   1.263       .  A
C1380      C1633   1.492       .  S
O1385      C1388   1.266       .  A
O1385     Cd1390   2.448       .  S
C1386      O1395   1.268       .  A
C1386      O1391   1.265       .  A
C1386      C1621   1.480       .  S
O1387      C1393   1.271       .  A
O1387     Cd1390   2.531       .  S
C1388      O1396   1.265       .  A
C1388      C1609   1.478       .  S
C1389      O1394   1.270       .  A
C1389      O1392   1.264       .  A
C1389      C1600   1.492       .  S
Cd1390     O1397   2.431       .  S
Cd1390     O1396   2.449       .  S
Cd1390     O1395   2.489       .  S
Cd1390     O1391   2.440       .  S
Cd1390     O1394   2.503       .  S
Cd1390     O1392   2.447       .  S
C1393      O1397   1.260       .  A
C1393      C1588   1.497       .  S
O1398      C1401   1.266       .  A
O1398     Cd1403   2.445       .  S
C1399      O1408   1.264       .  A
C1399      O1404   1.267       .  A
C1399      C1720   1.482       .  S
O1400      C1406   1.267       .  A
O1400     Cd1403   2.495       .  S
C1401      O1409   1.268       .  A
C1401      C1624   1.488       .  S
C1402      O1407   1.269       .  A
C1402      O1405   1.262       .  A
C1402      C1573   1.496       .  S
Cd1403     O1410   2.473       .  S
Cd1403     O1409   2.481       .  S
Cd1403     O1408   2.446       .  S
Cd1403     O1404   2.460       .  S
Cd1403     O1407   2.509       .  S
Cd1403     O1405   2.460       .  S
C1406      O1410   1.264       .  A
C1406      C1672   1.495       .  S
O1411      C1414   1.264       .  A
O1411     Cd1416   2.431       .  S
C1412      O1421   1.264       .  A
C1412      O1417   1.266       .  A
C1412      C1756   1.483       .  S
O1413      C1419   1.269       .  A
O1413     Cd1416   2.495       .  S
C1414      O1422   1.267       .  A
C1414      C1564   1.477       .  S
C1415      O1420   1.270       .  A
C1415      O1418   1.260       .  A
C1415      C1552   1.494       .  S
Cd1416     O1423   2.468       .  S
Cd1416     O1422   2.486       .  S
Cd1416     O1421   2.446       .  S
Cd1416     O1417   2.481       .  S
Cd1416     O1420   2.526       .  S
Cd1416     O1418   2.447       .  S
C1419      O1423   1.265       .  A
C1419      C1636   1.492       .  S
O1424      C1427   1.266       .  A
O1424     Cd1429   2.439       .  S
C1425      O1434   1.264       .  A
C1425      O1430   1.267       .  A
C1425      C1612   1.481       .  S
O1426      C1432   1.270       .  A
O1426     Cd1429   2.531       .  S
C1427      O1435   1.269       .  A
C1427      C1561   1.492       .  S
C1428      O1433   1.273       .  A
C1428      O1431   1.261       .  A
C1428      C1525   1.501       .  S
Cd1429     O1436   2.458       .  S
Cd1429     O1435   2.492       .  S
Cd1429     O1434   2.432       .  S
Cd1429     O1430   2.442       .  S
Cd1429     O1433   2.536       .  S
Cd1429     O1431   2.446       .  S
C1432      O1436   1.263       .  A
C1432      C1537   1.496       .  S
O1437      C1440   1.266       .  A
O1437     Cd1442   2.441       .  S
C1438      O1447   1.266       .  A
C1438      O1443   1.266       .  A
C1438      C1501   1.482       .  S
O1439      C1445   1.270       .  A
O1439     Cd1442   2.512       .  S
C1440      O1448   1.268       .  A
C1440      C1513   1.485       .  S
C1441      O1446   1.260       .  A
C1441      O1444   1.271       .  A
C1441      C1585   1.497       .  S
Cd1442     O1449   2.470       .  S
Cd1442     O1448   2.473       .  S
Cd1442     O1447   2.442       .  S
Cd1442     O1443   2.438       .  S
Cd1442     O1446   2.445       .  S
Cd1442     O1444   2.521       .  S
C1445      O1449   1.264       .  A
C1445      C1540   1.497       .  S
O1450      C1453   1.265       .  A
O1450     Cd1455   2.448       .  S
C1451      O1460   1.264       .  A
C1451      O1456   1.265       .  A
C1451      C1657   1.483       .  S
O1452      C1458   1.267       .  A
O1452     Cd1455   2.506       .  S
C1453      O1461   1.269       .  A
C1453      C1516   1.481       .  S
C1454      O1459   1.269       .  A
C1454      O1457   1.263       .  A
C1454      C1576   1.495       .  S
Cd1455     O1462   2.469       .  S
Cd1455     O1461   2.468       .  S
Cd1455     O1460   2.433       .  S
Cd1455     O1456   2.459       .  S
Cd1455     O1459   2.509       .  S
Cd1455     O1457   2.445       .  S
C1458      O1462   1.263       .  A
C1458      C1705   1.495       .  S
O1463      C1466   1.265       .  A
O1463     Cd1468   2.427       .  S
C1464      O1473   1.264       .  A
C1464      O1469   1.265       .  A
C1464      C1504   1.483       .  S
O1465      C1471   1.268       .  A
O1465     Cd1468   2.500       .  S
C1466      O1474   1.269       .  A
C1466      C1492   1.478       .  S
C1467      O1472   1.271       .  A
C1467      O1470   1.262       .  A
C1467      C1528   1.495       .  S
Cd1468     O1475   2.451       .  S
Cd1468     O1474   2.462       .  S
Cd1468     O1473   2.420       .  S
Cd1468     O1469   2.464       .  S
Cd1468     O1472   2.521       .  S
Cd1468     O1470   2.436       .  S
C1471      O1475   1.263       .  A
C1471      C1597   1.490       .  S
O1476      C1479   1.266       .  A
O1476     Cd1481   2.451       .  S
C1477      O1486   1.263       .  A
C1477      O1482   1.266       .  A
C1477      C1648   1.484       .  S
O1478      C1484   1.268       .  A
O1478     Cd1481   2.499       .  S
C1479      O1487   1.268       .  A
C1479      C1489   1.478       .  S
C1480      O1485   1.271       .  A
C1480      O1483   1.262       .  A
C1480      C1549   1.498       .  S
Cd1481     O1488   2.466       .  S
Cd1481     O1487   2.455       .  S
Cd1481     O1486   2.440       .  S
Cd1481     O1482   2.464       .  S
Cd1481     O1485   2.520       .  S
Cd1481     O1483   2.440       .  S
C1484      O1488   1.263       .  A
C1484      C1741   1.492       .  S
C1489      C1490   1.403       .  A
C1489      C1494   1.413       .  A
C1490      C1491   1.399       .  A
C1490      H1495   1.085       .  S
C1491      C1492   1.414       .  A
C1491      C1498   1.445       .  S
C1492      C1493   1.404       .  A
C1493      C1494   1.400       .  A
C1493      H1496   1.085       .  S
C1494      C1497   1.444       .  S
C1497      N1499   1.157       .  T
C1498      N1500   1.157       .  T
C1501      C1502   1.406       .  A
C1501      C1506   1.414       .  A
C1502      C1503   1.400       .  A
C1502      H1507   1.085       .  S
C1503      C1504   1.415       .  A
C1503      C1510   1.445       .  S
C1504      C1505   1.405       .  A
C1505      C1506   1.395       .  A
C1505      H1508   1.085       .  S
C1506      C1509   1.444       .  S
C1509      N1511   1.157       .  T
C1510      N1512   1.158       .  T
C1513      C1514   1.406       .  A
C1513      C1518   1.415       .  A
C1514      C1515   1.399       .  A
C1514      H1519   1.085       .  S
C1515      C1516   1.413       .  A
C1515      C1522   1.445       .  S
C1516      C1517   1.404       .  A
C1517      C1518   1.402       .  A
C1517      H1520   1.085       .  S
C1518      C1521   1.443       .  S
C1521      N1523   1.157       .  T
C1522      N1524   1.157       .  T
C1525      C1530   1.423       .  A
C1526      C1527   1.405       .  A
C1526      H1531   1.084       .  S
C1527      C1528   1.419       .  A
C1527      C1534   1.445       .  S
C1529      C1530   1.405       .  A
C1529      H1532   1.085       .  S
C1530      C1533   1.444       .  S
C1533      N1535   1.158       .  T
C1534      N1536   1.157       .  T
C1537      C1538   1.406       .  A
C1537      C1542   1.416       .  A
C1538      C1539   1.408       .  A
C1538      H1543   1.084       .  S
C1539      C1540   1.418       .  A
C1539      C1546   1.445       .  S
C1540      C1541   1.405       .  A
C1541      C1542   1.405       .  A
C1541      H1544   1.084       .  S
C1542      C1545   1.443       .  S
C1545      N1547   1.157       .  T
C1546      N1548   1.158       .  T
C1549      C1550   1.405       .  A
C1549      C1554   1.421       .  A
C1550      C1551   1.405       .  A
C1550      H1555   1.084       .  S
C1551      C1552   1.419       .  A
C1551      C1558   1.445       .  S
C1552      C1553   1.403       .  A
C1553      C1554   1.404       .  A
C1553      H1556   1.084       .  S
C1554      C1557   1.444       .  S
C1557      N1559   1.157       .  T
C1558      N1560   1.157       .  T
C1561      C1562   1.408       .  A
C1561      C1566   1.418       .  A
C1562      C1563   1.399       .  A
C1562      H1567   1.084       .  S
C1563      C1564   1.410       .  A
C1563      C1570   1.446       .  S
C1564      C1565   1.402       .  A
C1565      C1566   1.404       .  A
C1565      H1568   1.084       .  S
C1566      C1569   1.443       .  S
C1569      N1571   1.157       .  T
C1570      N1572   1.157       .  T
C1573      C1574   1.410       .  A
C1573      C1578   1.414       .  A
C1574      C1575   1.405       .  A
C1574      H1579   1.085       .  S
C1575      C1576   1.414       .  A
C1575      C1582   1.444       .  S
C1576      C1577   1.409       .  A
C1577      C1578   1.403       .  A
C1577      H1580   1.085       .  S
C1578      C1581   1.444       .  S
C1581      N1583   1.157       .  T
C1582      N1584   1.157       .  T
C1585      C1590   1.421       .  A
C1586      C1587   1.403       .  A
C1586      H1591   1.085       .  S
C1587      C1588   1.421       .  A
C1587      C1594   1.445       .  S
C1588      C1589   1.404       .  A
C1589      H1592   1.085   1_655  S
C1590      C1593   1.445       .  S
C1593      N1595   1.158       .  T
C1594      N1596   1.157       .  T
C1597      C1598   1.405       .  A
C1597      C1602   1.415       .  A
C1598      C1599   1.403       .  A
C1598      H1603   1.084       .  S
C1599      C1600   1.417       .  A
C1599      C1606   1.444       .  S
C1600      C1601   1.405       .  A
C1601      C1602   1.404       .  A
C1601      H1604   1.084       .  S
C1602      C1605   1.444       .  S
C1605      N1607   1.157       .  T
C1606      N1608   1.157       .  T
C1609      C1610   1.403       .  A
C1609      C1614   1.412       .  A
C1610      C1611   1.398       .  A
C1610      H1615   1.085       .  S
C1611      C1612   1.416       .  A
C1611      C1618   1.445       .  S
C1612      C1613   1.405       .  A
C1613      C1614   1.398       .  A
C1613      H1616   1.085       .  S
C1614      C1617   1.444       .  S
C1617      N1619   1.157       .  T
C1618      N1620   1.157       .  T
C1621      C1622   1.404       .  A
C1621      C1626   1.411       .  A
C1622      C1623   1.405       .  A
C1622      H1627   1.084       .  S
C1623      C1624   1.416       .  A
C1623      C1630   1.444       .  S
C1624      C1625   1.406       .  A
C1625      C1626   1.398       .  A
C1625      H1628   1.084       .  S
C1626      C1629   1.445       .  S
C1629      N1631   1.157       .  T
C1630      N1632   1.157       .  T
C1633      C1634   1.406   1_556  A
C1633      C1638   1.415   1_565  A
C1634      H1639   1.084       .  S
C1635      C1636   1.416       .  A
C1635      C1642   1.444       .  S
C1636      C1637   1.404   1_554  A
C1637      H1640   1.084       .  S
C1638      C1641   1.444       .  S
C1641      N1643   1.157       .  T
C1642      N1644   1.157       .  T
C1645      C1646   1.405       .  A
C1645      C1650   1.415   1_556  A
C1646      C1647   1.398       .  A
C1646      H1651   1.085       .  S
C1647      C1648   1.415   1_556  A
C1647      C1654   1.445       .  S
C1648      C1649   1.405       .  A
C1649      C1650   1.400       .  A
C1649      H1652   1.085       .  S
C1650      C1653   1.444       .  S
C1653      N1655   1.157       .  T
C1654      N1656   1.157       .  T
C1657      C1658   1.407       .  A
C1657      C1662   1.416       .  A
C1658      C1659   1.396       .  A
C1658      H1663   1.084       .  S
C1659      C1660   1.409       .  A
C1659      C1666   1.445       .  S
C1660      C1661   1.402       .  A
C1661      C1662   1.399       .  A
C1661      H1664   1.085       .  S
C1662      C1665   1.444       .  S
C1665      N1667   1.157       .  T
C1666      N1668   1.157       .  T
C1669      C1674   1.414       .  A
C1670      C1671   1.404       .  A
C1670      H1675   1.085       .  S
C1671      C1672   1.416       .  A
C1671      C1678   1.444       .  S
C1672      C1673   1.408       .  A
C1673      H1676   1.085       .  S
C1674      C1677   1.444       .  S
C1677      N1679   1.157       .  T
C1678      N1680   1.157       .  T
C1681      C1682   1.406       .  A
C1681      C1686   1.415       .  A
C1682      C1683   1.398       .  A
C1682      H1687   1.085       .  S
C1683      C1684   1.411       .  A
C1683      C1690   1.445       .  S
C1684      C1685   1.404       .  A
C1685      C1686   1.405       .  A
C1685      H1688   1.085       .  S
C1686      C1689   1.443       .  S
C1689      N1691   1.157       .  T
C1690      N1692   1.157       .  T
C1693      C1698   1.421       .  A
C1694      C1695   1.404       .  A
C1694      H1699   1.085       .  S
C1695      C1696   1.420       .  A
C1695      C1702   1.445       .  S
C1696      C1697   1.403   1_565  A
C1697      H1700   1.085       .  S
C1698      C1701   1.445       .  S
C1701      N1703   1.158       .  T
C1702      N1704   1.157       .  T
C1705      C1706   1.406       .  A
C1706      H1711   1.084       .  S
C1707      C1708   1.416       .  A
C1707      C1714   1.444       .  S
C1708      C1709   1.406       .  A
C1709      C1710   1.405       .  A
C1709      H1712   1.084       .  S
C1710      C1713   1.444       .  S
C1713      N1715   1.157       .  T
C1714      N1716   1.157   1_655  T
C1717      C1718   1.405       .  A
C1717      C1722   1.417       .  A
C1718      C1719   1.399       .  A
C1718      H1723   1.085       .  S
C1719      C1720   1.414       .  A
C1719      C1726   1.444       .  S
C1720      C1721   1.403       .  A
C1721      C1722   1.399       .  A
C1721      H1724   1.085       .  S
C1722      C1725   1.445       .  S
C1725      N1727   1.157       .  T
C1726      N1728   1.157       .  T
C1729      C1730   1.410       .  A
C1729      C1734   1.414   1_655  A
C1730      H1735   1.084       .  S
C1731      C1732   1.414       .  A
C1731      C1738   1.444       .  S
C1733      C1734   1.404       .  A
C1734      C1737   1.444       .  S
C1737      N1739   1.157       .  T
C1738      N1740   1.157       .  T
C1741      C1742   1.404   1_554  A
C1741      C1746   1.416       .  A
C1742      C1743   1.402       .  A
C1742      H1747   1.084       .  S
C1743      C1750   1.444       .  S
C1744      C1745   1.407   1_556  A
C1745      H1748   1.084       .  S
C1746      C1749   1.444   1_565  S
C1750      N1752   1.157       .  T
C1753      C1754   1.406       .  A
C1753      C1758   1.418   1_556  A
C1754      C1755   1.399       .  A
C1754      H1759   1.085       .  S
C1755      C1756   1.413   1_556  A
C1755      C1762   1.445       .  S
C1756      C1757   1.404       .  A
C1757      C1758   1.402       .  A
C1757      H1760   1.085       .  S
C1758      C1761   1.445       .  S
C1761      N1763   1.158       .  T
C1762      N1764   1.157       .  T
C1765      C1766   1.406       .  A
C1765      C1770   1.417       .  A
C1766      C1767   1.403       .  A
C1766      H1771   1.084       .  S
C1767      C1768   1.413       .  A
C1767      C1774   1.444       .  S
C1768      C1769   1.405       .  A
C1769      C1770   1.403       .  A
C1769      H1772   1.085       .  S
C1770      C1773   1.445       .  S
C1773      N1775   1.157       .  T
C1774      N1776   1.157       .  T
