geometry optimzed in LAMMPS
_audit_creation_date              2020-12-01 
_audit_creation_method            'lammps2cif' 
_symmetry_space_group_name_H-M    'P1' 
_symmetry_Int_Tables_number       1 
_symmetry_cell_setting            triclinic 
loop_ 
_symmetry_equiv_pos_as_xyz 
  x,y,z 
_cell_length_a                    25.23360196 
_cell_length_b                    23.402531527823452 
_cell_length_c                    23.490819900593394 
_cell_angle_alpha                 89.67508792290946 
_cell_angle_beta                  90.88247473434352 
_cell_angle_gamma                 88.68822978337765 
loop_ 
_atom_site_label 
_atom_site_type_symbol 
_atom_site_fract_x 
_atom_site_fract_y 
_atom_site_fract_z 
_atom_site_charge 
N1          N  0.05302519  0.07816403  0.10737074    -0.06700
N2          N  0.09833486  0.08882687  0.13299285    -0.58900
N3          N  0.92582917  0.08768895  0.06588201    -0.06400
N4          N  0.87820030  0.11165591  0.06658995    -0.61000
N5          N  0.93357150  0.05469149  0.11067105    -0.06000
N6          N  0.89149784  0.05528178  0.14298954    -0.58800
N7          N  0.04589791  0.11119359  0.06239927    -0.05700
N8          N  0.08629497  0.14521736  0.05624042    -0.61300
C9          C  0.11843215  0.12996841  0.10023549     0.95400
C10         C  0.85717528  0.09009597  0.11427391     0.95200
N11         N  0.93276674  0.02853030  0.90183147    -0.06900
N12         N  0.89166956  0.02481125  0.86665198    -0.59400
N13         N  0.04342459  0.09582563  0.93289897    -0.05000
N14         N  0.07469510  0.13773778  0.91902043    -0.60700
N15         N  0.05146079  0.05162038  0.89976132    -0.07000
N16         N  0.08820469  0.06207133  0.86224501    -0.59700
N17         N  0.92549175  0.07104652  0.93726999    -0.04700
N18         N  0.87954144  0.09686689  0.92779444    -0.60800
Mn19       Mn  0.98461900  0.09413256  0.99968546     1.18400
C20         C  0.85861400  0.06710597  0.88454043     0.97500
C21         C  0.10197946  0.11569664  0.87512786     0.98200
N22         N  0.95844813  0.92841998  0.13068250    -0.07000
N23         N  0.91575538  0.92342107  0.16144827    -0.63300
N24         N  0.08307246  0.90831981  0.09178693    -0.05800
N25         N  0.13242895  0.88949545  0.09315796    -0.64000
N26         N  0.07716726  0.95215476  0.12579096    -0.06500
N27         N  0.12224958  0.96369134  0.15187498    -0.63600
N28         N  0.96395844  0.88484547  0.09617867    -0.05400
N29         N  0.92531533  0.84881732  0.10259412    -0.64200
Mn30       Mn  0.00545430  0.00390637  0.12169430     1.10700
C31         C  0.89629438  0.87356743  0.14356837     0.98700
C32         C  0.15632304  0.92499074  0.12978488     0.98800
N33         N  0.07698525  0.92243609  0.92178618    -0.06500
N34         N  0.11836973  0.91528460  0.88901658    -0.61900
N35         N  0.96303706  0.86711258  0.96432675    -0.05800
N36         N  0.92728718  0.82687808  0.96128915    -0.58600
N37         N  0.95896632  0.90090776  0.91954645    -0.07100
N38         N  0.92087453  0.88513219  0.88507211    -0.61400
N39         N  0.08146468  0.88865020  0.96642057    -0.06100
N40         N  0.12569738  0.85822752  0.96571919    -0.58600
Mn41       Mn  0.00547648  0.97547993  0.90825137     1.20200
Mn42       Mn  0.02266337  0.88438806  0.03041347     1.10100
Cl43       Cl  0.00429420  0.98939392  0.01486714    -0.86600
C44         C  0.14851548  0.87605957  0.91796177     0.95700
C45         C  0.90197147  0.83923555  0.91142192     0.95500
C46         C  0.69503862  0.72756025  0.81636809     0.85900
C47         C  0.73094973  0.68053940  0.78913501    -0.54400
C48         C  0.77585965  0.70099629  0.76380350     0.08800
C49         C  0.77865565  0.76667173  0.76592141     0.19700
C50         C  0.73296931  0.75905314  0.85564632    -0.55100
C51         C  0.77616978  0.77847834  0.82962977     0.08900
C52         C  0.68203546  0.77011857  0.76732108    -0.54600
C53         C  0.72560911  0.79205794  0.74131475     0.09500
H54         H  0.72493310  0.63512964  0.79427477     0.14000
H55         H  0.81494231  0.78376955  0.74662759    -0.00300
H56         H  0.72791321  0.76213995  0.90146785     0.14300
H57         H  0.64170991  0.78338622  0.75611895     0.14100
C58         C  0.68688142  0.74542528  0.19844089     0.85900
C59         C  0.72214105  0.78566831  0.16518588    -0.54400
C60         C  0.76384616  0.80432488  0.19612600     0.08800
C61         C  0.76823716  0.78214389  0.25674030     0.19700
C62         C  0.72557449  0.69762765  0.22068626    -0.55100
C63         C  0.76927099  0.71701713  0.24971681     0.08900
C64         C  0.67187541  0.78012614  0.25256886    -0.54600
C65         C  0.71483924  0.80049149  0.28248179     0.09500
H66         H  0.71582128  0.79672020  0.12053722     0.14000
H67         H  0.80385250  0.79828185  0.27921975    -0.00300
H68         H  0.72160798  0.65298597  0.20947626     0.14300
H69         H  0.63148194  0.79024145  0.26465524     0.14100
C70         C  0.52087586  0.68269266  0.03258700     0.01700
C71         C  0.52458429  0.67814485  0.97240292     0.01600
C72         C  0.47789577  0.67288579  0.93964797    -0.18900
C73         C  0.42722709  0.67647787  0.96361119     0.01700
C74         C  0.42350771  0.67632956  0.02395788     0.01600
C75         C  0.47057506  0.67687982  0.05692118    -0.18900
H76         H  0.46742730  0.67841365  0.10292062     0.03700
H77         H  0.48089875  0.67235190  0.89357789     0.03700
C78         C  0.80587151  0.27792639  0.76153096     0.85900
C79         C  0.82445484  0.22292784  0.79280261    -0.54400
C80         C  0.78456644  0.18694979  0.80535680     0.08800
C81         C  0.72982298  0.20812647  0.78679863     0.19700
C82         C  0.77474610  0.25509396  0.70927761    -0.55100
C83         C  0.73657137  0.21621571  0.72233304     0.08900
C84         C  0.76305385  0.30429726  0.80021572    -0.54600
C85         C  0.72377158  0.26762198  0.81483233     0.09500
H86         H  0.86584307  0.21235562  0.80224437     0.14000
H87         H  0.69786897  0.17816863  0.79743297    -0.00300
H88         H  0.78798400  0.25963888  0.66590863     0.14300
H89         H  0.76629286  0.34668220  0.81832308     0.14100
C90         C  0.70906269  0.97001337  0.56569828     0.01700
C91         C  0.70554304  0.03072372  0.56606973     0.01600
C92         C  0.70341090  0.06063934  0.51378391    -0.18900
C93         C  0.70785516  0.03310066  0.46094757     0.01700
C94         C  0.70922755  0.97228832  0.46028987     0.01600
C95         C  0.70799290  0.94244906  0.51264088    -0.18900
H96         H  0.70872564  0.89607933  0.51214785     0.03700
H97         H  0.70321881  0.10703485  0.51447241     0.03700
C98         C  0.81060632  0.28738660  0.25776215     0.85900
C99         C  0.82706339  0.23841319  0.21807338    -0.54400
C100        C  0.78775663  0.20101786  0.20720263     0.08800
C101        C  0.73602639  0.21386575  0.23647013     0.19700
C102        C  0.76025217  0.31374133  0.22872510    -0.55100
C103        C  0.72173865  0.27515174  0.21554988     0.08900
C104        C  0.79035178  0.25564325  0.31123951    -0.54600
C105        C  0.75227397  0.21572376  0.29991519     0.09500
H106        H  0.86624829  0.23387618  0.19981119     0.14000
H107        H  0.70618750  0.18121447  0.22650464    -0.00300
H108        H  0.75794704  0.35803578  0.21483324     0.14300
H109        H  0.80797382  0.25948052  0.35328487     0.14100
C110        C  0.55863978  0.30637034  0.98045491     0.01700
C111        C  0.55568809  0.30519435  0.04085230     0.01600
C112        C  0.50528106  0.30913224  0.06565577    -0.18900
C113        C  0.45763092  0.30641643  0.03394519     0.01700
C114        C  0.46055144  0.30558921  0.97340090     0.01600
C115        C  0.51094442  0.30783553  0.94820953    -0.18900
H116        H  0.51320276  0.30678423  0.90210957     0.03700
H117        H  0.50300906  0.31079137  0.11172301     0.03700
C118        C  0.24793046  0.79265699  0.70570907     0.85900
C119        C  0.20216119  0.75245631  0.69020886    -0.54400
C120        C  0.18648725  0.71755395  0.73396880     0.08800
C121        C  0.22044982  0.72513974  0.78906347     0.19700
C122        C  0.22946818  0.82354924  0.75903648    -0.55100
C123        C  0.21609286  0.78849480  0.80185785     0.08900
C124        C  0.29337511  0.75228479  0.72879455    -0.54600
C125        C  0.27946263  0.71850587  0.77449990     0.09500
H126        H  0.18155648  0.75503237  0.64937486     0.14000
H127        H  0.20916698  0.69762406  0.82531487    -0.00300
H128        H  0.22919265  0.86982825  0.76359839     0.14300
H129        H  0.33454697  0.75701954  0.71772690     0.14100
C130        C  0.96037837  0.55033309  0.73380246     0.01700
C131        C  0.01635202  0.55524639  0.72779104     0.01600
C132        C  0.04778282  0.50464377  0.72559222    -0.18900
C133        C  0.02659920  0.44961262  0.73004361     0.01700
C134        C  0.97066447  0.44486030  0.73175950     0.01600
C135        C  0.93911749  0.49512441  0.73264672    -0.18900
H136        H  0.89644748  0.49094996  0.73528824     0.03700
H137        H  0.09052150  0.50826562  0.72330251     0.03700
C138        C  0.29249824  0.26577853  0.80286687     0.85900
C139        C  0.25472357  0.31481495  0.78169834    -0.54400
C140        C  0.21119546  0.29709645  0.75115038     0.08800
C141        C  0.21152416  0.23192964  0.74156907     0.19700
C142        C  0.25588853  0.22497391  0.83378482    -0.55100
C143        C  0.21429044  0.20779214  0.80167596     0.08900
C144        C  0.30800041  0.23317970  0.74809656    -0.54600
C145        C  0.26570644  0.21320640  0.71669123     0.09500
H146        H  0.25883592  0.35911154  0.79360768     0.14000
H147        H  0.17634996  0.21787745  0.71693877    -0.00300
H148        H  0.26193601  0.21144697  0.87782393     0.14300
H149        H  0.34884144  0.22140052  0.73916533     0.14100
C150        C  0.28518227  0.97616146  0.54163913     0.01700
C151        C  0.28271425  0.03715371  0.54206792     0.01600
C152        C  0.28131733  0.06648873  0.48939339    -0.18900
C153        C  0.28140715  0.03806374  0.43666736     0.01700
C154        C  0.28651528  0.97754766  0.43673068     0.01600
C155        C  0.28892551  0.94826120  0.48905905    -0.18900
H156        H  0.29035772  0.90182050  0.48867691     0.03700
H157        H  0.27818294  0.11283659  0.48940053     0.03700
C158        C  0.20074451  0.30879660  0.24192085     0.85900
C159        C  0.21909047  0.26823563  0.29089873    -0.54400
C160        C  0.25152474  0.22361659  0.27457884     0.08800
C161        C  0.26549112  0.22583780  0.21084104     0.19700
C162        C  0.25290706  0.32958616  0.21508582    -0.55100
C163        C  0.28643810  0.28597055  0.19713691     0.08900
C164        C  0.17804763  0.26904966  0.19695485    -0.54600
C165        C  0.21198669  0.22699690  0.18062098     0.09500
H166        H  0.20513646  0.27139974  0.33412454     0.14000
H167        H  0.29087674  0.18933590  0.19698437    -0.00300
H168        H  0.26001093  0.37431357  0.20631220     0.14300
H169        H  0.13806592  0.27376673  0.17924535     0.14100
C170        C  0.18945788  0.72886969  0.24978695     0.85900
C171        C  0.18019383  0.78440941  0.21501741    -0.54400
C172        C  0.22560306  0.81325317  0.20461678     0.08800
C173        C  0.27544415  0.78538283  0.22852357     0.19700
C174        C  0.23102760  0.69489116  0.21543752    -0.55100
C175        C  0.27519476  0.72497664  0.20205338     0.08900
C176        C  0.21978476  0.74946283  0.30347281    -0.54600
C177        C  0.26278520  0.78256033  0.29228073     0.09500
H178        H  0.14115165  0.80057965  0.20189076     0.14000
H179        H  0.31198167  0.80940922  0.21988636    -0.00300
H180        H  0.22253098  0.65378101  0.19657010     0.14300
H181        H  0.20248334  0.75024632  0.34534113     0.14100
C182        C  0.95736021  0.57157589  0.27294009     0.01700
C183        C  0.01340965  0.57701477  0.27317687     0.01600
C184        C  0.04531572  0.52707044  0.27386399    -0.18900
C185        C  0.02436799  0.47197396  0.27199111     0.01700
C186        C  0.96846518  0.46619463  0.27478614     0.01600
C187        C  0.93644725  0.51622879  0.27615780    -0.18900
H188        H  0.89370417  0.51190155  0.27648154     0.03700
H189        H  0.08807326  0.53131358  0.27285014     0.03700
C190        C  0.11661814  0.68302559  0.31209141    -0.14000
C191        C  0.13699732  0.69701562  0.25815741     0.08200
C192        C  0.10738328  0.68024366  0.20981153    -0.14000
C193        C  0.06148270  0.64774145  0.21491885    -0.14000
C194        C  0.04327743  0.63105617  0.26859051     0.08200
C195        C  0.07061290  0.65059105  0.31704639    -0.14000
H196        H  0.13696319  0.69409289  0.35100258     0.12200
H197        H  0.12126085  0.69022983  0.16758845     0.12200
H198        H  0.04279218  0.63140832  0.17671798     0.12200
H199        H  0.05897669  0.63643283  0.35892616     0.12200
C200        C  0.09651939  0.42751470  0.21501389    -0.14000
C201        C  0.06389247  0.42472444  0.26291793     0.08200
C202        C  0.07817000  0.38614353  0.30665756    -0.14000
C203        C  0.12400672  0.35097445  0.30240707    -0.14000
C204        C  0.15748364  0.35427797  0.25458164     0.08200
C205        C  0.14238685  0.39314495  0.21097563    -0.14000
H206        H  0.08716731  0.45789743  0.18114642     0.12200
H207        H  0.05463121  0.38425173  0.34476109     0.12200
H208        H  0.13177006  0.32056458  0.33629288     0.12200
H209        H  0.16547298  0.39574480  0.17261392     0.12200
C210        C  0.23204025  0.92248639  0.36896577    -0.14000
C211        C  0.28247983  0.94032899  0.38596351     0.08200
C212        C  0.32704597  0.90732397  0.36955527    -0.14000
C213        C  0.32103639  0.85622022  0.33904968    -0.14000
C214        C  0.27028172  0.83612540  0.32608607     0.08200
C215        C  0.22598338  0.87113406  0.33951028    -0.14000
H216        H  0.19699937  0.94605972  0.38240150     0.12200
H217        H  0.36631643  0.91920023  0.38368596     0.12200
H218        H  0.35588294  0.83128301  0.32752481     0.12200
H219        H  0.18632985  0.85832540  0.32785639     0.12200
C220        C  0.31477909  0.09365384  0.35230262    -0.14000
C221        C  0.27222723  0.07458567  0.38495321     0.08200
C222        C  0.22259250  0.10225814  0.37773076    -0.14000
C223        C  0.21608838  0.14953404  0.34126363    -0.14000
C224        C  0.25907400  0.17076073  0.31072233     0.08200
C225        C  0.30806195  0.14085185  0.31489072    -0.14000
H226        H  0.35381701  0.07412261  0.35813894     0.12200
H227        H  0.18939185  0.08924596  0.40307509     0.12200
H228        H  0.17739000  0.17035526  0.33788249     0.12200
H229        H  0.34173417  0.15570235  0.29142190     0.12200
C230        C  0.31797806  0.15771435  0.64215273    -0.14000
C231        C  0.27130743  0.16565546  0.67355827     0.08200
C232        C  0.23062754  0.12576520  0.66531798    -0.14000
C233        C  0.23570028  0.08099601  0.62584438    -0.14000
C234        C  0.28197114  0.07386948  0.59406360     0.08200
C235        C  0.32312250  0.11266783  0.60309124    -0.14000
H236        H  0.35017292  0.18720616  0.64647526     0.12200
H237        H  0.19446240  0.12870750  0.68925931     0.12200
H238        H  0.20240926  0.05356051  0.61839473     0.12200
H239        H  0.35858603  0.10956204  0.57777576     0.12200
C240        C  0.09890927  0.40223594  0.78728624    -0.14000
C241        C  0.06592777  0.40139827  0.73854959     0.08200
C242        C  0.07973300  0.36394403  0.69422036    -0.14000
C243        C  0.12647555  0.32951788  0.69815297    -0.14000
C244        C  0.16098520  0.33301017  0.74580762     0.08200
C245        C  0.14556406  0.36878218  0.79086947    -0.14000
H246        H  0.08977718  0.43126079  0.82172781     0.12200
H247        H  0.05582266  0.36336139  0.65554925     0.12200
H248        H  0.13664360  0.30176769  0.66307022     0.12200
H249        H  0.16981729  0.37125478  0.82916015     0.12200
C250        C  0.31086089  0.84978815  0.64076106    -0.14000
C251        C  0.25966832  0.83907875  0.66096023     0.08200
C252        C  0.21852052  0.87832266  0.64503029    -0.14000
C253        C  0.22810059  0.92656449  0.61129188    -0.14000
C254        C  0.27913367  0.93739186  0.59171950     0.08200
C255        C  0.32023994  0.89797472  0.60644838    -0.14000
H256        H  0.34399552  0.82142284  0.65093561     0.12200
H257        H  0.17857358  0.87192049  0.65964719     0.12200
H258        H  0.19488419  0.95371490  0.59781053     0.12200
H259        H  0.35941985  0.90334436  0.58928644     0.12200
C260        C  0.11701835  0.66100919  0.67914195    -0.14000
C261        C  0.13695986  0.68191919  0.73125219     0.08200
C262        C  0.10889949  0.66835325  0.78099805    -0.14000
C263        C  0.06482747  0.63239718  0.77912732    -0.14000
C264        C  0.04679522  0.60938345  0.72743107     0.08200
C265        C  0.07287750  0.62523791  0.67736931    -0.14000
H266        H  0.13706653  0.66975833  0.63978279     0.12200
H267        H  0.12137098  0.68451650  0.82196336     0.12200
H268        H  0.04697868  0.61947905  0.81866700     0.12200
H269        H  0.06141827  0.60641646  0.63711834     0.12200
C270        C  0.37135367  0.25206902  0.15215026    -0.14000
C271        C  0.33005978  0.29322259  0.15467973     0.08200
C272        C  0.32823640  0.33675611  0.11262740    -0.14000
C273        C  0.36734433  0.33944520  0.07026694    -0.14000
C274        C  0.40865850  0.29812845  0.06833286     0.08200
C275        C  0.40943946  0.25412569  0.10954645    -0.14000
H276        H  0.37490579  0.21833649  0.18374340     0.12200
H277        H  0.29649963  0.36864062  0.11218742     0.12200
H278        H  0.36638496  0.37494571  0.04057370     0.12200
H279        H  0.44138498  0.22237722  0.11029432     0.12200
C280        C  0.37486911  0.23616333  0.86041675    -0.14000
C281        C  0.33867770  0.28023658  0.84385768     0.08200
C282        C  0.34173519  0.33271110  0.87335437    -0.14000
C283        C  0.37951386  0.34039230  0.91736606    -0.14000
C284        C  0.41467670  0.29577225  0.93391326     0.06000
C285        C  0.41231994  0.24391593  0.90425499    -0.14000
H286        H  0.37336553  0.19479030  0.84010482     0.12200
H287        H  0.31454265  0.36780471  0.86401923     0.12200
H288        H  0.38184435  0.38161708  0.93781887     0.12200
H289        H  0.44006805  0.20933914  0.91479088     0.12200
C290        C  0.91772476  0.39526401  0.21815525    -0.14000
C291        C  0.93953724  0.41129524  0.27084633     0.08200
C292        C  0.92014735  0.38541704  0.32031017    -0.14000
C293        C  0.87944592  0.34512241  0.31726633    -0.14000
C294        C  0.85620831  0.33017237  0.26443077     0.08200
C295        C  0.87686561  0.35558398  0.21501998    -0.14000
H296        H  0.93017398  0.41612566  0.17949001     0.12200
H297        H  0.93459878  0.39872395  0.36170959     0.12200
H298        H  0.86547996  0.32768377  0.35672265     0.12200
H299        H  0.86032136  0.34553067  0.17353774     0.12200
C300        C  0.64639136  0.33058174  0.08166888    -0.14000
C301        C  0.60179211  0.29570650  0.08116588     0.08200
C302        C  0.59701041  0.25541894  0.12548693    -0.14000
C303        C  0.63431793  0.25120548  0.16991533    -0.14000
C304        C  0.67900793  0.28580137  0.17103072     0.08200
C305        C  0.68475522  0.32546588  0.12591603    -0.14000
H306        H  0.65095540  0.36257813  0.04873903     0.12200
H307        H  0.56312393  0.22787167  0.12661749     0.12200
H308        H  0.62760522  0.22076406  0.20372412     0.12200
H309        H  0.71918261  0.35205913  0.12417114     0.12200
C310        C  0.68033757  0.09418529  0.37558459    -0.14000
C311        C  0.72045065  0.07092370  0.41158391     0.08200
C312        C  0.77077264  0.09551144  0.41027617    -0.14000
C313        C  0.78065209  0.14259743  0.37501687    -0.14000
C314        C  0.74044949  0.16689596  0.33969701     0.08200
C315        C  0.69045361  0.14101606  0.33943320    -0.14000
H316        H  0.64064612  0.07768445  0.37714428     0.12200
H317        H  0.80202787  0.07970311  0.43874666     0.12200
H318        H  0.82007797  0.15987792  0.37542195     0.12200
H319        H  0.65861486  0.15815067  0.31254347     0.12200
C320        C  0.88519712  0.33376509  0.79764845    -0.14000
C321        C  0.85328655  0.31707367  0.75092813     0.08200
C322        C  0.86760020  0.33657732  0.69638328    -0.14000
C323        C  0.91071856  0.37284204  0.68944349    -0.14000
C324        C  0.94113645  0.39068983  0.73643374     0.08200
C325        C  0.92840024  0.36984513  0.79052740    -0.14000
H326        H  0.87571500  0.31988530  0.84028056     0.12200
H327        H  0.84475414  0.32635011  0.65882230     0.12200
H328        H  0.91808819  0.39033694  0.64758334     0.12200
H329        H  0.94956314  0.38478381  0.82783668     0.12200
C330        C  0.66253642  0.33471072  0.86931345    -0.14000
C331        C  0.68525791  0.27984114  0.86173435     0.08200
C332        C  0.67117349  0.23615484  0.89985695    -0.14000
C333        C  0.63350363  0.24621968  0.94233232    -0.14000
C334        C  0.60873386  0.30016936  0.94775944     0.08200
C335        C  0.62430391  0.34453040  0.91133771    -0.14000
H336        H  0.67251390  0.36944661  0.84107021     0.12200
H337        H  0.68880840  0.19374149  0.89648724     0.12200
H338        H  0.62151632  0.21097674  0.96894695     0.12200
H339        H  0.60494951  0.38622578  0.91373940     0.12200
C340        C  0.77114190  0.13823428  0.65876559    -0.14000
C341        C  0.72761163  0.16604790  0.68432231     0.08200
C342        C  0.67740003  0.14165280  0.67849929    -0.14000
C343        C  0.67035043  0.09312182  0.64420436    -0.14000
C344        C  0.71377488  0.06689090  0.61700427     0.08200
C345        C  0.76429213  0.08935811  0.62575988    -0.14000
H346        H  0.81073978  0.15446303  0.66413275     0.12200
H347        H  0.64343791  0.16124672  0.69895419     0.12200
H348        H  0.63071437  0.07779628  0.63656998     0.12200
H349        H  0.79810499  0.07109941  0.60386964     0.12200
C350        C  0.35664292  0.64108481  0.09270186    -0.14000
C351        C  0.37389934  0.68492328  0.05655192     0.08200
C352        C  0.35571210  0.74097575  0.06649932    -0.14000
C353        C  0.32337777  0.75345501  0.11305161    -0.14000
C354        C  0.30814535  0.71017446  0.15111072     0.08200
C355        C  0.32360608  0.65343362  0.13901163    -0.14000
H356        H  0.37166345  0.59776304  0.08730655     0.12200
H357        H  0.36978250  0.77582181  0.04064665     0.12200
H358        H  0.31119959  0.79749159  0.11966596     0.12200
H359        H  0.31237850  0.61898983  0.16697608     0.12200
C360        C  0.34662391  0.64726280  0.90553986    -0.14000
C361        C  0.38265387  0.68911350  0.92247960     0.08200
C362        C  0.38478577  0.73959247  0.88987913    -0.14000
C363        C  0.35321121  0.74760231  0.84087144    -0.14000
C364        C  0.31793098  0.70550637  0.82273620     0.08200
C365        C  0.31396532  0.65582257  0.85664556    -0.14000
H366        H  0.34506286  0.60731088  0.92888442     0.12200
H367        H  0.41282163  0.77216209  0.90127433     0.12200
H368        H  0.35587001  0.78747077  0.81758057     0.12200
H369        H  0.28606570  0.62331685  0.84482177     0.12200
C370        C  0.75330342  0.84888125  0.36847485    -0.14000
C371        C  0.71229786  0.84584277  0.32749173     0.08200
C372        C  0.67284434  0.88963665  0.32670479    -0.14000
C373        C  0.67382583  0.93419537  0.36691139    -0.14000
C374        C  0.71450701  0.93616365  0.40837544     0.08200
C375        C  0.75466091  0.89348182  0.40775093    -0.14000
H376        H  0.78410423  0.81598616  0.37115787     0.12200
H377        H  0.64128381  0.88958180  0.29497253     0.12200
H378        H  0.64162376  0.96556188  0.36720424     0.12200
H379        H  0.78592270  0.89308104  0.43992863     0.12200
C380        C  0.88538770  0.61731990  0.21423755    -0.14000
C381        C  0.91762824  0.61908557  0.26354318     0.08200
C382        C  0.90188002  0.65542977  0.30800999    -0.14000
C383        C  0.85398369  0.68774765  0.30366694    -0.14000
C384        C  0.82021137  0.68289000  0.25559413     0.08200
C385        C  0.83743741  0.64844922  0.21038340    -0.14000
H386        H  0.89598374  0.58893729  0.17973616     0.12200
H387        H  0.92512883  0.65654295  0.34711074     0.12200
H388        H  0.84234146  0.71486226  0.33873931     0.12200
H389        H  0.81357179  0.64525005  0.17187452     0.12200
C390        C  0.55578052  0.74278169  0.11242327    -0.14000
C391        C  0.56524801  0.69955163  0.07200856     0.08200
C392        C  0.61460427  0.67067456  0.07389805    -0.14000
C393        C  0.65276409  0.68400902  0.11594316    -0.14000
C394        C  0.64221769  0.72541484  0.15838685     0.08200
C395        C  0.59344688  0.75562010  0.15457241    -0.14000
H396        H  0.51865065  0.76697920  0.11142855     0.12200
H397        H  0.62341458  0.63731000  0.04353502     0.12200
H398        H  0.69101317  0.66222363  0.11468614     0.12200
H399        H  0.58450863  0.79054934  0.18296706     0.12200
C400        C  0.61596386  0.75533280  0.87535225    -0.14000
C401        C  0.64769057  0.71081663  0.85260019     0.08200
C402        C  0.64064354  0.65495320  0.87381212    -0.14000
C403        C  0.60305675  0.64448850  0.91610104    -0.14000
C404        C  0.57277950  0.68960125  0.93924250     0.08200
C405        C  0.57935329  0.74493166  0.91796258    -0.14000
H406        H  0.62083991  0.79903994  0.86128713     0.12200
H407        H  0.66450363  0.61931712  0.85908995     0.12200
H408        H  0.59691424  0.60099929  0.93013201     0.12200
H409        H  0.55478060  0.78000063  0.93322208     0.12200
C410        C  0.75974991  0.89228430  0.61843714    -0.14000
C411        C  0.71703262  0.93219718  0.61716720     0.08200
C412        C  0.67775409  0.92698060  0.65849936    -0.14000
C413        C  0.68043316  0.88193918  0.69878837    -0.14000
C414        C  0.72245567  0.84079674  0.69878091     0.08200
C415        C  0.76245873  0.84748508  0.65845505    -0.14000
H416        H  0.79018092  0.89440453  0.58650035     0.12200
H417        H  0.64381204  0.95614839  0.65804466     0.12200
H418        H  0.64928967  0.87931969  0.72977266     0.12200
H419        H  0.79515925  0.81690180  0.65629800     0.12200
C420        C  0.86014619  0.67381353  0.71029090    -0.14000
C421        C  0.82530008  0.66472820  0.75580048     0.08200
C422        C  0.84055439  0.62401555  0.79742325    -0.14000
C423        C  0.88766761  0.59173098  0.79262202    -0.14000
C424        C  0.92101836  0.59786313  0.74545002     0.08200
C425        C  0.90711738  0.64010864  0.70465380    -0.14000
H426        H  0.85016531  0.70574317  0.67812113     0.12200
H427        H  0.81603980  0.61714553  0.83414952     0.12200
H428        H  0.89679175  0.55928626  0.82460022     0.12200
H429        H  0.93109880  0.64517291  0.66722560     0.12200
C430        C  0.82026094  0.79612618  0.86238275    -0.13900
C431        C  0.85767701  0.81109959  0.88928847    -0.15500
C432        C  0.79489604  0.13132973  0.82827028    -0.13900
C433        C  0.81691432  0.09168887  0.85123140    -0.15500
C434        C  0.20429317  0.81143358  0.85543134    -0.13900
C435        C  0.18607000  0.84149918  0.89074512    -0.15500
C436        C  0.80533998  0.83526785  0.17255930    -0.13900
C437        C  0.84616477  0.85456636  0.15862754    -0.15500
C438        C  0.20432838  0.90825346  0.15637264    -0.13900
C439        C  0.22503142  0.86859358  0.17994221    -0.15500
C440        C  0.79511718  0.15337683  0.17108120    -0.13900
C441        C  0.81489785  0.11794837  0.14172530    -0.15500
C442        C  0.14126026  0.14557298  0.84607051    -0.13900
C443        C  0.17470794  0.17261756  0.82405651    -0.15500
C444        C  0.16567157  0.15756656  0.11448278    -0.13900
C445        C  0.19570335  0.18649341  0.14006304    -0.15500
loop_ 
_geom_bond_atom_site_label_1 
_geom_bond_atom_site_label_2 
_geom_bond_distance 
_geom_bond_site_symmetry_2 
_ccdc_geom_bond_type 
N1            N2   1.314       .  A
N1            N7   1.313       .  A
N1          Mn30   2.162       .  S
N2            C9   1.342       .  A
N3            N5   1.311       .  A
N3            N4   1.315       .  A
N3          Mn19   2.173   1_554  S
N4           C10   1.347       .  A
N5            N6   1.315       .  A
N5          Mn30   2.157   1_655  S
N6           C10   1.346       .  A
N7            N8   1.317       .  A
N7          Mn19   2.165   1_454  S
N8            C9   1.345       .  A
C9          C444   1.406       .  S
C10         C441   1.405       .  S
N11          N17   1.312       .  A
N11          N12   1.321       .  A
N11         Mn41   2.194   1_645  S
N12          C20   1.353       .  A
N13          N14   1.316       .  A
N13          N15   1.312       .  A
N13         Mn19   2.177   1_455  S
N14          C21   1.347       .  A
N15          N16   1.315       .  A
N15         Mn41   2.158   1_545  S
N16          C21   1.345       .  A
N17          N18   1.311       .  A
N17         Mn19   2.155       .  S
N18          C20   1.343       .  A
Mn19        Cl43   2.512   1_646  S
C20         C433   1.411       .  S
C21         C442   1.409       .  S
N22          N23   1.314       .  A
N22          N28   1.312       .  A
N22         Mn30   2.161   1_665  S
N23          C31   1.343       .  A
N24          N26   1.311       .  A
N24          N25   1.311       .  A
N24         Mn42   2.167       .  S
N25          C32   1.345       .  A
N26          N27   1.318       .  A
N26         Mn30   2.155   1_565  S
N27          C32   1.346       .  A
N28          N29   1.313       .  A
N28         Mn42   2.157   1_655  S
N29          C31   1.344       .  A
Mn30        Cl43   2.534   1_545  S
C31         C437   1.400       .  S
C32         C438   1.401       .  S
N33          N34   1.315       .  A
N33          N39   1.312       .  A
N33         Mn41   2.185       .  S
N34          C44   1.352       .  A
N35          N36   1.320       .  A
N35          N37   1.314       .  A
N35         Mn42   2.191   1_656  S
N36          C45   1.352       .  A
N37          N38   1.308       .  A
N37         Mn41   2.143   1_655  S
N38          C45   1.338       .  A
N39          N40   1.310       .  A
N39         Mn42   2.132   1_556  S
N40          C44   1.338       .  A
Mn41        Cl43   2.528   1_556  S
Mn42        Cl43   2.514       .  S
C44         C435   1.397       .  S
C45         C431   1.405       .  S
C46          C47   1.556       .  S
C46          C52   1.545       .  S
C46          C50   1.524       .  S
C46         C401   1.534       .  S
C47          H54   1.083       .  S
C47          C48   1.382       .  D
C48          C49   1.541       .  S
C48         C421   1.508       .  S
C49          C53   1.554       .  S
C49          C51   1.525       .  S
C49          H55   1.110       .  S
C50          H56   1.088       .  S
C50          C51   1.345       .  D
C51         C430   1.414       .  S
C52          H57   1.085       .  S
C52          C53   1.374       .  D
C53         C414   1.512       .  S
C58          C59   1.530       .  S
C58          C64   1.560       .  S
C58          C62   1.551       .  S
C58         C394   1.540       .  S
C59          H66   1.087       .  S
C59          C60   1.352       .  D
C60          C61   1.514       .  S
C60         C436   1.405       .  S
C61          C65   1.539       .  S
C61          C63   1.534       .  S
C61          H67   1.110       .  S
C62          H68   1.085       .  S
C62          C63   1.375       .  D
C63         C384   1.502       .  S
C64          H69   1.084       .  S
C64          C65   1.378       .  D
C65         C371   1.503       .  S
C70          C71   1.423   1_554  A
C70          C75   1.409       .  A
C70         C391   1.503       .  S
C71          C72   1.405       .  A
C71         C404   1.483       .  S
C72          C73   1.406       .  A
C72          H77   1.086       .  S
C73          C74   1.422   1_556  A
C73         C361   1.495       .  S
C74          C75   1.408       .  A
C74         C351   1.488       .  S
C75          H76   1.085       .  S
C78          C79   1.539       .  S
C78          C84   1.543       .  S
C78          C82   1.551       .  S
C78         C321   1.546       .  S
C79          H86   1.087       .  S
C79          C80   1.362       .  D
C80          C81   1.514       .  S
C80         C432   1.423       .  S
C81          C85   1.549       .  S
C81          C83   1.538       .  S
C81          H87   1.111       .  S
C82          H88   1.082       .  S
C82          C83   1.377       .  D
C83         C341   1.498       .  S
C84          H89   1.086       .  S
C84          C85   1.372       .  D
C85         C331   1.505       .  S
C90          C91   1.422   1_565  A
C90          C95   1.407       .  A
C90         C411   1.503       .  S
C91          C92   1.410       .  A
C91         C344   1.484       .  S
C92          C93   1.407       .  A
C92          H97   1.086       .  S
C93          C94   1.423   1_545  A
C93         C311   1.497       .  S
C94          C95   1.412       .  A
C94         C374   1.494       .  S
C95          H96   1.085       .  S
C98          C99   1.535       .  S
C98         C104   1.555       .  S
C98         C102   1.547       .  S
C98         C294   1.549       .  S
C99         H106   1.087       .  S
C99         C100   1.360       .  D
C100        C101   1.510       .  S
C100        C440   1.415       .  S
C101        C105   1.541       .  S
C101        C103   1.546       .  S
C101        H107   1.108       .  S
C102        H108   1.085       .  S
C102        C103   1.375       .  D
C103        C304   1.506       .  S
C104        H109   1.082       .  S
C104        C105   1.379       .  D
C105        C314   1.510       .  S
C110        C111   1.422   1_556  A
C110        C115   1.412       .  A
C110        C334   1.494       .  S
C111        C112   1.409       .  A
C111        C301   1.500       .  S
C112        C113   1.408       .  A
C112        H117   1.085       .  S
C113        C114   1.425   1_554  A
C113        C274   1.502       .  S
C114        C115   1.413       .  A
C114        C284   1.495       .  S
C115        H116   1.086       .  S
C118        C119   1.547       .  S
C118        C124   1.558       .  S
C118        C122   1.524       .  S
C118        C251   1.544       .  S
C119        H126   1.085       .  S
C119        C120   1.378       .  D
C120        C121   1.554       .  S
C120        C261   1.519       .  S
C121        C125   1.538       .  S
C121        C123   1.516       .  S
C121        H127   1.109       .  S
C122        H128   1.089       .  S
C122        C123   1.346       .  D
C123        C434   1.404       .  S
C124        H129   1.083       .  S
C124        C125   1.384       .  D
C125        C364   1.506       .  S
C130        C131   1.429   1_655  A
C130        C135   1.411       .  A
C130        C424   1.503       .  S
C131        C132   1.412       .  A
C131        C264   1.497       .  S
C132        C133   1.410       .  A
C132        H137   1.086       .  S
C133        C134   1.420   1_455  A
C133        C241   1.496       .  S
C134        C135   1.406       .  A
C134        C324   1.489       .  S
C135        H136   1.086       .  S
C138        C139   1.550       .  S
C138        C144   1.550       .  S
C138        C142   1.532       .  S
C138        C281   1.545       .  S
C139        H146   1.082       .  S
C139        C140   1.376       .  D
C140        C141   1.543       .  S
C140        C244   1.507       .  S
C141        C145   1.550       .  S
C141        C143   1.518       .  S
C141        H147   1.109       .  S
C142        H148   1.088       .  S
C142        C143   1.353       .  D
C143        C443   1.414       .  S
C144        H149   1.085       .  S
C144        C145   1.380       .  D
C145        C231   1.515       .  S
C150        C151   1.427   1_565  A
C150        C155   1.404       .  A
C150        C254   1.493       .  S
C151        C152   1.411       .  A
C151        C234   1.497       .  S
C152        C153   1.409       .  A
C152        H157   1.086       .  S
C153        C154   1.419   1_545  A
C153        C221   1.493       .  S
C154        C155   1.404       .  A
C154        C211   1.484       .  S
C155        H156   1.087       .  S
C158        C159   1.546       .  S
C158        C164   1.525       .  S
C158        C162   1.555       .  S
C158        C204   1.541       .  S
C159        H166   1.082       .  S
C159        C160   1.372       .  D
C160        C161   1.544       .  S
C160        C224   1.503       .  S
C161        C165   1.515       .  S
C161        C163   1.548       .  S
C161        H167   1.109       .  S
C162        H168   1.085       .  S
C162        C163   1.383       .  D
C163        C271   1.509       .  S
C164        H169   1.088       .  S
C164        C165   1.351       .  D
C165        C445   1.411       .  S
C170        C171   1.543       .  S
C170        C176   1.550       .  S
C170        C174   1.542       .  S
C170        C191   1.549       .  S
C171        H178   1.087       .  S
C171        C172   1.368       .  D
C172        C173   1.503       .  S
C172        C439   1.416       .  S
C173        C177   1.538       .  S
C173        C175   1.548       .  S
C173        H179   1.112       .  S
C174        H180   1.086       .  S
C174        C175   1.371       .  D
C175        C354   1.505       .  S
C176        H181   1.082       .  S
C176        C177   1.375       .  D
C177        C214   1.502       .  S
C182        C183   1.423   1_655  A
C182        C187   1.412       .  A
C182        C381   1.493       .  S
C183        C184   1.404       .  A
C183        C194   1.491       .  S
C184        C185   1.405       .  A
C184        H189   1.086       .  S
C185        C186   1.423   1_455  A
C185        C201   1.490       .  S
C186        C187   1.408       .  A
C186        C291   1.495       .  S
C187        H188   1.086       .  S
C190        C191   1.414       .  A
C190        C195   1.407       .  A
C190        H196   1.077       .  S
C191        C192   1.412       .  A
C192        C193   1.406       .  A
C192        H197   1.083       .  S
C193        C194   1.405       .  A
C193        H198   1.083       .  S
C194        C195   1.406       .  A
C195        H199   1.083       .  S
C200        C201   1.407       .  A
C200        C205   1.399       .  A
C200        H206   1.084       .  S
C201        C202   1.401       .  A
C202        C203   1.409       .  A
C202        H207   1.083       .  S
C203        C204   1.419       .  A
C203        H208   1.077       .  S
C204        C205   1.408       .  A
C205        H209   1.083       .  S
C210        C211   1.402       .  A
C210        C215   1.400       .  A
C210        H216   1.084       .  S
C211        C212   1.410       .  A
C212        C213   1.408       .  A
C212        H217   1.083       .  S
C213        C214   1.404       .  A
C213        H218   1.083       .  S
C214        C215   1.411       .  A
C215        H219   1.083       .  S
C220        C221   1.408       .  A
C220        C225   1.413       .  A
C220        H226   1.083       .  S
C221        C222   1.404       .  A
C222        C223   1.401       .  A
C222        H227   1.084       .  S
C223        C224   1.408       .  A
C223        H228   1.083       .  S
C224        C225   1.408       .  A
C225        H229   1.083       .  S
C230        C231   1.409       .  A
C230        C235   1.407       .  A
C230        H236   1.082       .  S
C231        C232   1.415       .  A
C232        C233   1.408       .  A
C232        H237   1.080       .  S
C233        C234   1.403       .  A
C233        H238   1.082       .  S
C234        C235   1.409       .  A
C235        H239   1.083       .  S
C240        C241   1.405       .  A
C240        C245   1.400       .  A
C240        H246   1.083       .  S
C241        C242   1.408       .  A
C242        C243   1.415       .  A
C242        H247   1.083       .  S
C243        C244   1.412       .  A
C243        H248   1.082       .  S
C244        C245   1.407       .  A
C245        H249   1.083       .  S
C250        C251   1.410       .  A
C250        C255   1.409       .  A
C250        H256   1.079       .  S
C251        C252   1.415       .  A
C252        C253   1.403       .  A
C252        H257   1.083       .  S
C253        C254   1.402       .  A
C253        H258   1.082       .  S
C254        C255   1.410       .  A
C255        H259   1.083       .  S
C260        C261   1.411       .  A
C260        C265   1.409       .  A
C260        H266   1.082       .  S
C261        C262   1.414       .  A
C262        C263   1.410       .  A
C262        H267   1.081       .  S
C263        C264   1.405       .  A
C263        H268   1.083       .  S
C264        C265   1.408       .  A
C265        H269   1.083       .  S
C270        C271   1.405       .  A
C270        C275   1.400       .  A
C270        H276   1.082       .  S
C271        C272   1.415       .  A
C272        C273   1.414       .  A
C272        H277   1.082       .  S
C273        C274   1.407       .  A
C273        H278   1.081       .  S
C274        C275   1.409       .  A
C275        H279   1.084       .  S
C280        C281   1.411       .  A
C280        C285   1.402       .  A
C280        H286   1.083       .  S
C281        C282   1.417       .  A
C282        C283   1.411       .  A
C282        H287   1.077       .  S
C283        C284   1.404       .  A
C283        H288   1.083       .  S
C284        C285   1.405       .  A
C285        H289   1.083       .  S
C290        C291   1.403       .  A
C290        C295   1.405       .  A
C290        H296   1.083       .  S
C291        C292   1.407       .  A
C292        C293   1.411       .  A
C292        H297   1.083       .  S
C293        C294   1.414       .  A
C293        H298   1.078       .  S
C294        C295   1.413       .  A
C295        H299   1.083       .  S
C300        C301   1.405       .  A
C300        C305   1.412       .  A
C300        H306   1.083       .  S
C301        C302   1.409       .  A
C302        C303   1.396       .  A
C302        H307   1.083       .  S
C303        C304   1.403       .  A
C303        H308   1.082       .  S
C304        C305   1.416       .  A
C305        H309   1.081       .  S
C310        C311   1.407       .  A
C310        C315   1.413       .  A
C310        H316   1.083       .  S
C311        C312   1.407       .  A
C312        C313   1.404       .  A
C312        H317   1.083       .  S
C313        C314   1.408       .  A
C313        H318   1.082       .  S
C314        C315   1.412       .  A
C315        H319   1.083       .  S
C320        C321   1.413       .  A
C320        C325   1.406       .  A
C320        H326   1.083       .  S
C321        C322   1.413       .  A
C322        C323   1.406       .  A
C322        H327   1.078       .  S
C323        C324   1.406       .  A
C323        H328   1.083       .  S
C324        C325   1.403       .  A
C325        H329   1.083       .  S
C330        C331   1.408       .  A
C330        C335   1.407       .  A
C330        H336   1.083       .  S
C331        C332   1.411       .  A
C332        C333   1.406       .  A
C332        H337   1.082       .  S
C333        C334   1.403       .  A
C333        H338   1.084       .  S
C334        C335   1.408       .  A
C335        H339   1.083       .  S
C340        C341   1.408       .  A
C340        C345   1.398       .  A
C340        H346   1.083       .  S
C341        C342   1.407       .  A
C342        C343   1.409       .  A
C342        H347   1.083       .  S
C343        C344   1.407       .  A
C343        H348   1.083       .  S
C344        C345   1.403       .  A
C345        H349   1.084       .  S
C350        C351   1.409       .  A
C350        C355   1.408       .  A
C350        H356   1.083       .  S
C351        C352   1.402       .  A
C352        C353   1.403       .  A
C352        H357   1.084       .  S
C353        C354   1.411       .  A
C353        H358   1.081       .  S
C354        C355   1.407       .  A
C355        H359   1.082       .  S
C360        C361   1.406       .  A
C360        C365   1.414       .  A
C360        H366   1.083       .  S
C361        C362   1.407       .  A
C362        C363   1.399       .  A
C362        H367   1.084       .  S
C363        C364   1.406       .  A
C363        H368   1.083       .  S
C364        C365   1.412       .  A
C365        H369   1.083       .  S
C370        C371   1.406       .  A
C370        C375   1.398       .  A
C370        H376   1.082       .  S
C371        C372   1.412       .  A
C372        C373   1.411       .  A
C372        H377   1.082       .  S
C373        C374   1.406       .  A
C373        H378   1.083       .  S
C374        C375   1.407       .  A
C375        H379   1.084       .  S
C380        C381   1.406       .  A
C380        C385   1.399       .  A
C380        H386   1.084       .  S
C381        C382   1.407       .  A
C382        C383   1.413       .  A
C382        H387   1.083       .  S
C383        C384   1.411       .  A
C383        H388   1.083       .  S
C384        C385   1.405       .  A
C385        H389   1.083       .  S
C390        C391   1.410       .  A
C390        C395   1.401       .  A
C390        H396   1.083       .  S
C391        C392   1.403       .  A
C392        C393   1.410       .  A
C392        H397   1.082       .  S
C393        C394   1.418       .  A
C393        H398   1.082       .  S
C394        C395   1.407       .  A
C395        H399   1.080       .  S
C400        C401   1.412       .  A
C400        C405   1.397       .  A
C400        H406   1.083       .  S
C401        C402   1.412       .  A
C402        C403   1.408       .  A
C402        H407   1.079       .  S
C403        C404   1.406       .  A
C403        H408   1.083       .  S
C404        C405   1.400       .  A
C405        H409   1.083       .  S
C410        C411   1.410       .  A
C410        C415   1.404       .  A
C410        H416   1.084       .  S
C411        C412   1.405       .  A
C412        C413   1.412       .  A
C412        H417   1.083       .  S
C413        C414   1.416       .  A
C413        H418   1.082       .  S
C414        C415   1.406       .  A
C415        H419   1.082       .  S
C420        C421   1.413       .  A
C420        C425   1.417       .  A
C420        H426   1.083       .  S
C421        C422   1.405       .  A
C422        C423   1.400       .  A
C422        H427   1.083       .  S
C423        C424   1.410       .  A
C423        H428   1.084       .  S
C424        C425   1.408       .  A
C425        H429   1.082       .  S
C430        C431   1.189       .  T
C432        C433   1.192       .  T
C434        C435   1.182       .  T
C436        C437   1.184       .  T
C438        C439   1.185       .  T
C440        C441   1.188       .  T
C442        C443   1.189       .  T
C444        C445   1.186       .  T
