geometry optimzed in LAMMPS
_audit_creation_date              2020-12-01 
_audit_creation_method            'lammps2cif' 
_symmetry_space_group_name_H-M    'P1' 
_symmetry_Int_Tables_number       1 
_symmetry_cell_setting            triclinic 
loop_ 
_symmetry_equiv_pos_as_xyz 
  x,y,z 
_cell_length_a                    28.21172081 
_cell_length_b                    28.268167881696534 
_cell_length_c                    32.62457829439189 
_cell_angle_alpha                 90.08855409285155 
_cell_angle_beta                  90.04545909017496 
_cell_angle_gamma                 90.14233970796812 
loop_ 
_atom_site_label 
_atom_site_type_symbol 
_atom_site_fract_x 
_atom_site_fract_y 
_atom_site_fract_z 
_atom_site_charge 
C1          C  0.87700593  0.67989771  0.32884660     0.79900
N2          N  0.83595911  0.66120874  0.31513807    -0.78400
C3          C  0.82338020  0.61625999  0.32348048     0.82400
N4          N  0.85275225  0.58881996  0.34634684    -0.78300
C5          C  0.89468873  0.60685808  0.36013778     0.82500
N6          N  0.90676039  0.65257636  0.35159834    -0.80000
C7          C  0.71366524  0.85166863  0.03729200     0.79900
N8          N  0.67921492  0.88321982  0.02691724    -0.78400
C9          C  0.63381477  0.86823390  0.02048096     0.82400
N10         N  0.62275221  0.82149756  0.02513819    -0.78300
C11         C  0.65705650  0.78981162  0.03576587     0.82500
N12         N  0.70200426  0.80547799  0.04156070    -0.80000
C13         C  0.36260013  0.78470722  0.35754768     0.79900
N14         N  0.31576408  0.79539745  0.35651378    -0.78400
C15         C  0.29990451  0.83925415  0.36644558     0.82400
N16         N  0.33194219  0.87314216  0.37769213    -0.78300
C17         C  0.37913857  0.86303140  0.37903993     0.82500
N18         N  0.39430721  0.81888951  0.36870839    -0.80000
C19         C  0.88666014  0.30232026  0.07625803     0.79900
N20         N  0.91485933  0.33000177  0.05231618    -0.78400
C21         C  0.89927164  0.37320633  0.03978928     0.82400
N22         N  0.85519532  0.38821547  0.05063740    -0.78300
C23         C  0.82705070  0.36040640  0.07450122     0.82500
N24         N  0.84325591  0.31797010  0.08702988    -0.80000
C25         C  0.11819409  0.89136284  0.30656249     0.42200
N26         N  0.09259305  0.93744981  0.25909436     0.01100
C27         C  0.88631753  0.07041330  0.25792467    -0.06800
H28         H  0.86871984  0.88972637  0.22720601     0.06600
C29         C  0.94089486  0.91687023  0.09565527    -0.07200
Co30       Co  0.00506276  0.98934692  0.28304274     0.74200
N31         N  0.92269419  0.93888176  0.24684462    -0.26300
Co32       Co  0.92520319  0.99307401  0.20242791     0.74100
C33         C  0.89281156  0.90227149  0.10763473     0.42300
N34         N  0.06299269  0.93246594  0.13792998     0.00700
N35         N  0.92430644  0.94387677  0.15580337     0.00800
N36         N  0.93412049  0.06402568  0.31292146    -0.47200
H37         H  0.05456712  0.90934977  0.34796595     0.06500
N38         N  0.95352127  0.93785814  0.27744287     0.01100
N39         N  0.93433718  0.04679023  0.15803946     0.00800
C40         C  0.93173852  0.11134453  0.12354524     0.42400
N41         N  0.09392285  0.93168092  0.16846324    -0.25800
C42         C  0.05879109  0.08000403  0.30596357    -0.06700
N43         N  0.12839206  0.91007299  0.26972850    -0.46900
N44         N  0.91106492  0.08730191  0.15475006    -0.47100
C45         C  0.09926705  0.10596667  0.29004520     0.42200
N46         N  0.95101864  0.03980273  0.28121618     0.01100
N47         N  0.10283841  0.03434593  0.16524570    -0.25800
N48         N  0.05922038  0.93925317  0.28715713    -0.26300
N49         N  0.07399775  0.03431317  0.13354456     0.00700
H50         H  0.17159817  0.06510378  0.17581431     0.06600
H51         H  0.99607509  0.08983565  0.08435479     0.06600
N52         N  0.92262305  0.04187618  0.24928409    -0.26400
N53         N  0.95751970  0.94249544  0.12755518    -0.26000
N54         N  0.09187938  0.04105442  0.25632470     0.01100
C55         C  0.91399175  0.87392422  0.28470563     0.42500
C56         C  0.11701620  0.89034009  0.16722277    -0.07200
N57         N  0.96922868  0.04366692  0.13111674    -0.26000
H58         H  0.95788276  0.91375748  0.06608037     0.06600
N59         N  0.94975310  0.89970233  0.30049730    -0.47200
H60         H  0.14314708  0.87870518  0.18922692     0.06600
C61         C  0.13189811  0.07944870  0.11583071     0.42300
C62         C  0.07242768  0.91153460  0.31872274    -0.06700
Co63       Co  0.09633685  0.98629114  0.21230420     0.73800
N64         N  0.06312841  0.89339172  0.11571877    -0.46900
C65         C  0.89394031  0.08551749  0.30001388     0.42600
N66         N  0.11805344  0.07999397  0.25907929    -0.46900
Co67       Co  0.01612759  0.98799021  0.13163803     0.73900
C68         C  0.97012819  0.08237237  0.10784449    -0.07200
C69         C  0.89582381  0.89974482  0.24901412    -0.06800
N70         N  0.05674007  0.04096424  0.28314397    -0.26300
N71         N  0.88534612  0.92119946  0.14487020    -0.47100
H72         H  0.85470021  0.07399978  0.23941722     0.06600
C73         C  0.14003869  0.06212927  0.15712416    -0.07200
Cl74       Cl  0.01067074  0.98916880  0.20733973    -0.50200
C75         C  0.09625966  0.86511324  0.13230453     0.42300
H76         H  0.03313650  0.08985273  0.32901072     0.06500
N77         N  0.09093766  0.05966333  0.10257817    -0.46900
C78         C  0.20683597  0.62803320  0.06291067     0.79900
N79         N  0.18849356  0.66838935  0.07812536    -0.78400
C80         C  0.14308874  0.68075420  0.07139666     0.82400
N81         N  0.11485075  0.65202119  0.04854049    -0.78300
C82         C  0.13262935  0.61094849  0.03310777     0.82500
N83         N  0.17868406  0.59887516  0.04022374    -0.80000
C84         C  0.71223969  0.13553420  0.36357631     0.79900
N85         N  0.67901990  0.10286735  0.37483352    -0.78400
C86         C  0.63251420  0.11549915  0.37830945     0.82400
N87         N  0.61922237  0.16085027  0.36998731    -0.78300
C88         C  0.65214659  0.19367525  0.35855259     0.82500
N89         N  0.69817612  0.18043075  0.35556200    -0.80000
C90         C  0.19813241  0.36357673  0.31824571     0.79900
N91         N  0.18395465  0.31890009  0.31010540    -0.78400
C92         C  0.14383368  0.30087140  0.32625030     0.82400
N93         N  0.11682877  0.32847602  0.35117394    -0.78300
C94         C  0.13046408  0.37374346  0.35949389     0.82500
N95         N  0.17134687  0.39122007  0.34326416    -0.80000
C96         C  0.30570429  0.13836492  0.04041351     0.79900
N97         N  0.33884344  0.10631823  0.02823051    -0.78400
C98         C  0.38374163  0.12071481  0.01907964     0.82400
N99         N  0.39555991  0.16741435  0.02232020    -0.78300
C100        C  0.36249109  0.19968812  0.03440282     0.82500
N101        N  0.31810851  0.18455147  0.04334146    -0.80000
C102        C  0.63325755  0.57048485  0.27422912     0.42200
N103        N  0.56919913  0.56805698  0.23878778     0.01100
C104        C  0.41174919  0.38637325  0.22794577    -0.06800
H105        H  0.58542797  0.33057695  0.22367006     0.06600
C106        C  0.60544519  0.44294423  0.09260222    -0.07200
Co107      Co  0.50909760  0.48703955  0.26469423     0.74200
N108        N  0.55618734  0.39992247  0.23308183    -0.26300
Co109      Co  0.50942152  0.40621047  0.18492979     0.74100
C110        C  0.63164126  0.40353792  0.10972814     0.42300
N111        N  0.56558336  0.54986364  0.11557095     0.00700
N112        N  0.56552368  0.41018291  0.14187741     0.00800
N113        N  0.41359034  0.44111389  0.27876142    -0.47200
H114        H  0.61011807  0.50705794  0.31370071     0.06500
N115        N  0.55521984  0.42872025  0.26479531     0.01100
N116        N  0.46147833  0.40968529  0.13752249     0.00800
C117        C  0.41493429  0.38330333  0.09062848     0.42400
N118        N  0.56751891  0.57796285  0.14767479    -0.25800
C119        C  0.43495971  0.56214184  0.29634316    -0.06700
N120        N  0.61009281  0.59084547  0.24241991    -0.46900
N121        N  0.43316179  0.37423522  0.12779301    -0.47100
C122        C  0.42017221  0.60942613  0.28266797     0.42200
N123        N  0.45350657  0.44048436  0.25769313     0.01100
N124        N  0.46423937  0.57886446  0.14700425    -0.25800
N125        N  0.56504945  0.53372000  0.26604282    -0.26300
N126        N  0.46340385  0.54762399  0.11676650     0.00700
H127        H  0.41540717  0.63339515  0.16516312     0.06600
H128        H  0.43435745  0.44512496  0.04766371     0.06600
N129        N  0.45346355  0.40912948  0.22753609    -0.26400
N130        N  0.56580211  0.44467568  0.11454056    -0.26000
N131        N  0.46610546  0.57815798  0.23771568     0.01100
C132        C  0.59807644  0.36978037  0.28417356     0.42500
C133        C  0.59727296  0.61358659  0.14003803    -0.07200
N134        N  0.46412429  0.44204124  0.10871621    -0.26000
H135        H  0.61550287  0.46842946  0.06952256     0.06600
N136        N  0.57856946  0.41111653  0.29673558    -0.47200
H137        H  0.60092635  0.64498761  0.15878918     0.06600
C138        C  0.40009755  0.58746081  0.10794142     0.42300
C139        C  0.60333824  0.53282316  0.28998082    -0.06700
Co140      Co  0.51703949  0.57658211  0.19288390     0.73800
N141        N  0.59089344  0.56662263  0.08447616    -0.46900
C142        C  0.38547586  0.40795578  0.26181209     0.42600
N143        N  0.44178252  0.61663450  0.24655184    -0.46900
Co144      Co  0.51457574  0.49605562  0.11297967     0.73900
C145        C  0.43629689  0.42814764  0.07728791    -0.07200
C146        C  0.58266783  0.36222822  0.24218536    -0.06800
N147        N  0.46339333  0.54557607  0.26635232    -0.26300
N148        N  0.60502661  0.38480074  0.14037821    -0.47100
H149        H  0.40043095  0.36011517  0.20588691     0.06600
C150        C  0.42553300  0.60598717  0.14379255    -0.07200
Cl151      Cl  0.51259273  0.49146656  0.18889737    -0.50200
C152        C  0.61300493  0.60620918  0.09818484     0.42300
H153        H  0.42943070  0.54548031  0.32576407     0.06500
N154        N  0.42568290  0.55126364  0.09297755    -0.46900
C155        C  0.47320928  0.96054450  0.42595306     0.02000
C156        C  0.47344446  0.96104840  0.46919502     0.02000
C157        C  0.50399400  0.99167382  0.49036914    -0.18600
C158        C  0.53486963  0.02191822  0.46925354     0.02000
C159        C  0.53536430  0.02185179  0.42596875     0.02000
C160        C  0.50427344  0.99113778  0.40451148    -0.18600
H161        H  0.50443806  0.99086014  0.37128963     0.04000
H162        H  0.50391655  0.99178996  0.52364040     0.04000
C163        C  0.98436168  0.45990825  0.97051824     0.02000
C164        C  0.98333629  0.45998632  0.92721750     0.02000
C165        C  0.01335764  0.49118070  0.90545524    -0.18600
C166        C  0.04417643  0.52221757  0.92653468     0.02000
C167        C  0.04470900  0.52181709  0.96974355     0.02000
C168        C  0.01497198  0.49084340  0.99131019    -0.18600
H169        H  0.01567557  0.49082147  0.02457232     0.04000
H170        H  0.01268697  0.49132626  0.87222922     0.04000
C171        C  0.98171243  0.51963606  0.42649405     0.02000
C172        C  0.97836706  0.51742683  0.46963067     0.02000
C173        C  0.00790322  0.48570344  0.49136266    -0.18600
C174        C  0.04044114  0.45634160  0.47034630     0.02000
C175        C  0.04304470  0.45890059  0.42720451     0.02000
C176        C  0.01388593  0.49045165  0.40576731    -0.18600
H177        H  0.01610854  0.49215504  0.37259063     0.04000
H178        H  0.00559951  0.48390760  0.52448629     0.04000
C179        C  0.53726708  0.96133872  0.97184350     0.02000
C180        C  0.53592239  0.96011457  0.92860546     0.02000
C181        C  0.50547699  0.99033602  0.90716142    -0.18600
C182        C  0.47610481  0.02215327  0.92796725     0.02000
C183        C  0.47706051  0.02409547  0.97118359     0.02000
C184        C  0.50769308  0.99352411  0.99293884    -0.18600
H185        H  0.50853577  0.99481035  0.02614079     0.04000
H186        H  0.50469985  0.98913511  0.87390697     0.04000
C187        C  0.63140038  0.80583258  0.81901606     0.79900
N188        N  0.60357237  0.83228617  0.84414988    -0.78400
C189        C  0.62034862  0.87398866  0.85940800     0.82400
N190        N  0.66502143  0.88877892  0.85003942    -0.78300
C191        C  0.69273309  0.86209940  0.82500937     0.82500
N192        N  0.67544552  0.82116574  0.80990639    -0.80000
C193        C  0.80912824  0.35080906  0.85573437     0.79900
N194        N  0.84279954  0.38234656  0.86814996    -0.78400
C195        C  0.88774321  0.36744201  0.87622602     0.82400
N196        N  0.89917084  0.32093227  0.87134833    -0.78300
C197        C  0.86562881  0.28927475  0.85879945     0.82500
N198        N  0.82109316  0.30477014  0.85121193    -0.80000
C199        C  0.31990441  0.12001117  0.82182266     0.79900
N200        N  0.34691613  0.09237180  0.84666168    -0.78400
C201        C  0.39072244  0.10749076  0.85851396     0.82400
N202        N  0.40704993  0.15053845  0.84614564    -0.78300
C203        C  0.37990739  0.17809741  0.82135301     0.82500
N204        N  0.33686223  0.16234013  0.80947954    -0.80000
C205        C  0.15864603  0.69840393  0.86580528     0.79900
N206        N  0.12578009  0.66497929  0.87602348    -0.78400
C207        C  0.13870077  0.61880783  0.88031784     0.82400
N208        N  0.18467885  0.60598108  0.87406990    -0.78300
C209        C  0.21778258  0.63907221  0.86367568     0.82500
N210        N  0.20420995  0.68486274  0.85965901    -0.83600
C211        C  0.21188474  0.33770770  0.53604504     0.79900
N212        N  0.19687061  0.29264415  0.54203366    -0.78400
C213        C  0.15092230  0.28004126  0.53661123     0.82400
N214        N  0.11903309  0.31366800  0.52501297    -0.78300
C215        C  0.13337898  0.35914442  0.51850760     0.82500
N216        N  0.17983191  0.37108999  0.52417382    -0.80000
C217        C  0.63642124  0.17904506  0.57243666     0.79900
N218        N  0.60830540  0.15161326  0.54813380    -0.78400
C219        C  0.62197136  0.10689628  0.53822009     0.82400
N220        N  0.66412924  0.08990031  0.55208609    -0.78300
C221        C  0.69218850  0.11733364  0.57642862     0.82500
N222        N  0.67786248  0.16144319  0.58634599    -0.80000
C223        C  0.39463645  0.58085634  0.79359293     0.42200
N224        N  0.42330112  0.53753238  0.74551641     0.01100
C225        C  0.63830057  0.41895858  0.74192315    -0.06800
H226        H  0.63954189  0.60217095  0.70937855     0.06600
C227        C  0.57243494  0.56786512  0.58089582    -0.07200
Co228      Co  0.51459098  0.49172872  0.76863860     0.74200
N229        N  0.59223413  0.54811179  0.73161080    -0.26300
Co230      Co  0.59380870  0.49366841  0.68748300     0.74100
C231        C  0.61893972  0.58677761  0.59318474     0.42300
N232        N  0.45225514  0.54435526  0.62353254     0.00700
N233        N  0.59074580  0.54273579  0.64112776     0.00800
N234        N  0.59041378  0.42099875  0.79710882    -0.47200
H235        H  0.45962590  0.56724215  0.83473286     0.06500
N236        N  0.56178159  0.54713875  0.76245929     0.01100
N237        N  0.58829818  0.43910764  0.64317527     0.00800
C238        C  0.59433850  0.37414959  0.60931734     0.42400
N239        N  0.42178878  0.54362803  0.65439861    -0.25800
C240        C  0.46743660  0.39727439  0.79148446    -0.06700
N241        N  0.38553500  0.56200550  0.75654814    -0.46900
N242        N  0.61376604  0.39984750  0.64025509    -0.47100
C243        C  0.42813785  0.36920758  0.77585242     0.42200
N244        N  0.57206855  0.44518400  0.76605224     0.01100
N245        N  0.41948108  0.44015763  0.65152958    -0.25800
N246        N  0.45683869  0.53773826  0.77355039    -0.26300
N247        N  0.44735407  0.44213782  0.61928430     0.00700
H248        H  0.35320830  0.40517929  0.66340345     0.06600
H249        H  0.52833426  0.39127435  0.57049859     0.06600
N250        N  0.60030743  0.44542861  0.73402554    -0.26400
N251        N  0.55769905  0.54124437  0.61274639    -0.26000
N252        N  0.43142702  0.43441886  0.74231448     0.01100
C253        C  0.59356980  0.61550711  0.76674177     0.42500
C254        C  0.39698626  0.58403546  0.65350170    -0.07200
N255        N  0.55299960  0.43967185  0.61647045    -0.26000
H256        H  0.55532861  0.56956335  0.55127165     0.06600
N257        N  0.56120088  0.58675264  0.78396606    -0.47200
H258        H  0.37100575  0.59470619  0.67599276     0.06600
C259        C  0.39153349  0.39378454  0.60238960     0.42300
C260        C  0.44178845  0.56398991  0.80551910    -0.06700
Co261      Co  0.42300708  0.48879149  0.69841338     0.73800
N262        N  0.45027544  0.58351331  0.60158888    -0.46900
C263        C  0.63173778  0.40234030  0.78360284     0.42600
N264        N  0.40740984  0.39418782  0.74527596    -0.46900
Co265      Co  0.50235749  0.49197956  0.61708284     0.73900
C266        C  0.55424728  0.40068676  0.59353659    -0.07200
C267        C  0.61449762  0.59002608  0.73211502    -0.06800
N268        N  0.46686822  0.43648274  0.76884104    -0.26300
N269        N  0.62764693  0.56868770  0.63047912    -0.47100
H270        H  0.66976930  0.41728597  0.72305248     0.06600
C271        C  0.38400470  0.40999017  0.64410541    -0.07200
Cl272      Cl  0.50842461  0.49151194  0.69291659    -0.50200
C273        C  0.41615750  0.61031995  0.61845794     0.42300
H274        H  0.49367253  0.38895212  0.81451137     0.06500
N275        N  0.43078180  0.41623747  0.58836741    -0.46900
C276        C  0.86336280  0.69005785  0.53589458     0.79900
N277        N  0.89561187  0.65649990  0.52489388    -0.78400
C278        C  0.88130057  0.61146151  0.51634695     0.82400
N279        N  0.83449400  0.59982052  0.51945373    -0.78300
C280        C  0.80195331  0.63318520  0.53039318     0.82500
N281        N  0.81692928  0.67788556  0.53842462    -0.80000
C282        C  0.31627289  0.86192612  0.57262129     0.79900
N283        N  0.33130229  0.81822810  0.58258689    -0.78400
C284        C  0.37328977  0.80132369  0.56949881     0.82400
N285        N  0.40133046  0.82912878  0.54558797    -0.78300
C286        C  0.38664603  0.87347803  0.53524427     0.82500
N287        N  0.34396079  0.88984370  0.54860540    -0.80000
C288        C  0.88800924  0.90448332  0.78832651     0.42200
N289        N  0.95337782  0.90913221  0.75486362     0.01100
C290        C  0.09844835  0.10114069  0.74444982    -0.06800
H291        H  0.92210999  0.14399807  0.73598377     0.06600
C292        C  0.91091500  0.02917835  0.60692609    -0.07200
Co293      Co  0.00745090  0.99457367  0.78091110     0.74200
N294        N  0.95518799  0.07691803  0.74693712    -0.26300
Co295      Co  0.00323547  0.07346076  0.69990430     0.74100
C296        C  0.88278032  0.06799036  0.62298913     0.42300
N297        N  0.95828584  0.92489929  0.63178704     0.00700
N298        N  0.94844500  0.06497131  0.65619019     0.00800
N299        N  0.09917902  0.04774260  0.79613579    -0.47200
H300        H  0.90643178  0.97002275  0.82721788     0.06500
N301        N  0.95784131  0.04932179  0.77924540     0.01100
N302        N  0.05189049  0.07297378  0.65316702     0.00800
C303        C  0.09645300  0.10205343  0.60610039     0.42400
N304        N  0.95866210  0.89647949  0.66366120    -0.25800
C305        C  0.08396721  0.92513913  0.81626854    -0.06700
N306        N  0.91338563  0.88458654  0.75750833    -0.46900
N307        N  0.07690982  0.11060264  0.64287805    -0.47100
C308        C  0.10255154  0.87878207  0.80387099     0.42200
N309        N  0.05983816  0.04496274  0.77431513     0.01100
N310        N  0.06167046  0.90436679  0.66575486    -0.25800
N311        N  0.95470395  0.94426590  0.78168355    -0.26300
N312        N  0.06035562  0.93476221  0.63494200     0.00700
H313        H  0.11539095  0.85583681  0.68639018     0.06600
H314        H  0.08307008  0.03748828  0.56430818     0.06600
N315        N  0.05843108  0.07546441  0.74359676    -0.26400
N316        N  0.95037460  0.02984765  0.62942241    -0.26000
N317        N  0.05713492  0.90604966  0.75658103     0.01100
C318        C  0.91179610  0.10620077  0.79725950     0.42500
C319        C  0.93216808  0.85839877  0.65538791    -0.07200
N320        N  0.05222880  0.03973555  0.62494920    -0.26000
H321        H  0.90244652  0.00308561  0.58378079     0.06600
N322        N  0.93380074  0.06669406  0.81082670    -0.47200
H323        H  0.93060828  0.82679205  0.67399548     0.06600
C324        C  0.12783366  0.90171908  0.62878599     0.42300
C325        C  0.91550509  0.94382402  0.80439731    -0.06700
Co326      Co  0.00752976  0.90304724  0.71028868     0.73800
N327        N  0.93393471  0.90670437  0.60060860    -0.46900
C328        C  0.12538014  0.08244314  0.77927040     0.42600
N329        N  0.08336119  0.86939322  0.76704375    -0.46900
Co330      Co  0.00541633  0.98220046  0.62935036     0.73900
C331        C  0.07946035  0.05496845  0.59363069    -0.07200
C332        C  0.92629303  0.11299125  0.75503038    -0.06800
N333        N  0.05650120  0.93935607  0.78476130    -0.26300
N334        N  0.90804544  0.08865621  0.65356024    -0.47100
H335        H  0.10846462  0.12748399  0.72208424     0.06600
C336        C  0.10318204  0.88144032  0.66422282    -0.07200
Cl337      Cl  0.00590928  0.98829622  0.70510765    -0.50200
C338        C  0.91526697  0.86518904  0.61370595     0.42300
H339        H  0.08671817  0.94268272  0.84564834     0.06500
N340        N  0.09910890  0.93445335  0.61231056    -0.46900
C341        C  0.19476744  0.91709013  0.58041104    -0.13600
C342        C  0.17709697  0.89431164  0.61562026     0.08500
C343        C  0.20692844  0.86467011  0.63814981    -0.13600
C344        C  0.25292650  0.85628311  0.62485169    -0.13600
C345        C  0.27011658  0.87729898  0.58872317     0.08500
C346        C  0.24111126  0.90869397  0.56704646    -0.13600
H347        H  0.17245450  0.94057196  0.56271585     0.12500
H348        H  0.19470856  0.84731576  0.66572723     0.12500
H349        H  0.27482704  0.83236439  0.64251304     0.12500
H350        H  0.25351652  0.92511480  0.53905265     0.12500
C351        C  0.84402000  0.77367350  0.55628396    -0.13600
C352        C  0.87828305  0.73830606  0.54912673     0.08500
C353        C  0.92585744  0.74824820  0.55872889    -0.13600
C354        C  0.93826911  0.79114790  0.57750083    -0.13600
C355        C  0.90354367  0.82516015  0.58648138     0.08500
C356        C  0.85656180  0.81664242  0.57485474    -0.13600
H357        H  0.80705301  0.76742727  0.54908583     0.12500
H358        H  0.95311444  0.72195408  0.55378965     0.12500
H359        H  0.97471193  0.79694362  0.58677208     0.12500
H360        H  0.82921479  0.84218250  0.58200929     0.12500
C361        C  0.37139570  0.68536696  0.62640088    -0.13600
C362        C  0.40649530  0.65948616  0.60622482     0.08500
C363        C  0.43260138  0.68111983  0.57453975    -0.13600
C364        C  0.42299196  0.72777841  0.56281061    -0.13600
C365        C  0.38701036  0.75324353  0.58254412     0.08500
C366        C  0.36177442  0.73160051  0.61473220    -0.13600
H367        H  0.35092818  0.66993344  0.65103223     0.12500
H368        H  0.46022155  0.66189793  0.55865882     0.12500
H369        H  0.44292792  0.74348489  0.53793546     0.12500
H370        H  0.33408679  0.75028873  0.63099781     0.12500
C371        C  0.69118402  0.56239955  0.55555673    -0.13600
C372        C  0.65923462  0.59840690  0.56631433     0.08500
C373        C  0.67242516  0.64562447  0.56033213    -0.13600
C374        C  0.71789468  0.65676365  0.54596441    -0.13600
C375        C  0.75128387  0.62083106  0.53780168     0.08500
C376        C  0.73670277  0.57344159  0.54126684    -0.13600
H377        H  0.68200713  0.52569006  0.56095612     0.12500
H378        H  0.64875727  0.67390629  0.56933591     0.12500
H379        H  0.72768831  0.69370091  0.54340438     0.12500
H380        H  0.76133227  0.54490278  0.53543345     0.12500
C381        C  0.64064684  0.30040218  0.62142774    -0.13600
C382        C  0.60557832  0.32448009  0.59946586     0.08500
C383        C  0.57992050  0.30013436  0.56894148    -0.13600
C384        C  0.58899832  0.25255095  0.56068654    -0.13600
C385        C  0.62422081  0.22848963  0.58252825     0.08500
C386        C  0.64990826  0.25291242  0.61303688    -0.13600
H387        H  0.66076433  0.31816868  0.64520322     0.12500
H388        H  0.55270912  0.31760762  0.55125971     0.12500
H389        H  0.56899574  0.23489753  0.53678049     0.12500
H390        H  0.67734519  0.23536354  0.63052878     0.12500
C391        C  0.76320140  0.12718556  0.62127415    -0.13600
C392        C  0.73941695  0.10168338  0.59031697     0.08500
C393        C  0.76269344  0.06399637  0.57104805    -0.13600
C394        C  0.80933323  0.05297158  0.58170394    -0.13600
C395        C  0.83338207  0.07923017  0.61201070     0.08500
C396        C  0.80967431  0.11605207  0.63200688    -0.13600
H397        H  0.74613204  0.15634105  0.63693519     0.12500
H398        H  0.74542507  0.04394979  0.54696471     0.12500
H399        H  0.82650725  0.02417108  0.56576103     0.12500
H400        H  0.82718167  0.13657949  0.65565894     0.12500
C401        C  0.08797886  0.21969915  0.55316167    -0.13600
C402        C  0.13598417  0.23096860  0.54713334     0.08500
C403        C  0.17032366  0.19590742  0.55519472    -0.13600
C404        C  0.15719039  0.15186696  0.57131069    -0.13600
C405        C  0.10952466  0.14192585  0.57938918     0.08500
C406        C  0.07496287  0.17572337  0.56940317    -0.13600
H407        H  0.06065526  0.24572494  0.54751343     0.12500
H408        H  0.20766773  0.20320503  0.55079070     0.12500
H409        H  0.18442906  0.12671590  0.57967377     0.12500
H410        H  0.03799597  0.16899299  0.57630639     0.12500
C411        C  0.28106928  0.39493364  0.53750561    -0.13600
C412        C  0.26180549  0.35019443  0.54654141     0.08500
C413        C  0.28974975  0.31784662  0.56880228    -0.13600
C414        C  0.33405851  0.33104187  0.58422306    -0.13600
C415        C  0.35217836  0.37630663  0.57681453     0.08500
C416        C  0.32603163  0.40780291  0.55241518    -0.13600
H417        H  0.26069020  0.42059420  0.52036566     0.12500
H418        H  0.27634299  0.28304023  0.57643726     0.12500
H419        H  0.35317367  0.30667822  0.60376595     0.12500
H420        H  0.33894956  0.44341586  0.54728199     0.12500
C421        C  0.29701267  0.65846151  0.83287813    -0.13600
C422        C  0.26718817  0.62547723  0.85258268     0.08500
C423        C  0.28386175  0.57903199  0.85810633    -0.13600
C424        C  0.32786810  0.56530779  0.84192110    -0.13600
C425        C  0.35590225  0.59776679  0.82006488     0.08500
C426        C  0.34056667  0.64456391  0.81639964    -0.13600
H427        H  0.28562260  0.69456525  0.82802765     0.12500
H428        H  0.26206676  0.55280143  0.87328067     0.12500
H429        H  0.33869989  0.52868149  0.84428291     0.12500
H430        H  0.36116745  0.66981339  0.79887856     0.12500
C431        C  0.08435470  0.80852627  0.84681721    -0.13600
C432        C  0.11823661  0.83957275  0.83022531     0.08500
C433        C  0.16586732  0.82601175  0.82971969    -0.13600
C434        C  0.17922308  0.78115678  0.84362927    -0.13600
C435        C  0.14500970  0.74850917  0.85772287     0.08500
C436        C  0.09759000  0.76343606  0.86055329    -0.13600
H437        H  0.04715126  0.81794366  0.84648108     0.12500
H438        H  0.19233349  0.84893339  0.81609953     0.12500
H439        H  0.21614548  0.77122453  0.84114189     0.12500
H440        H  0.07032371  0.73948033  0.87132646     0.12500
C441        C  0.43090121  0.25027790  0.82915349    -0.13600
C442        C  0.39481154  0.22590082  0.80843743     0.08500
C443        C  0.37030749  0.24884276  0.77652293    -0.13600
C444        C  0.38111953  0.29539165  0.76598834    -0.13600
C445        C  0.41663360  0.32002362  0.78712343     0.08500
C446        C  0.44161538  0.29699538  0.81867500    -0.13600
H447        H  0.45003835  0.23371009  0.85405107     0.12500
H448        H  0.34234738  0.23095606  0.75977177     0.12500
H449        H  0.36156494  0.31211677  0.74140594     0.12500
H450        H  0.46922648  0.31499918  0.83564341     0.12500
C451        C  0.24991204  0.13069184  0.77649397    -0.13600
C452        C  0.27136865  0.10675405  0.80942517     0.08500
C453        C  0.24467359  0.07387201  0.83183276    -0.13600
C454        C  0.19696167  0.06620080  0.82213904    -0.13600
C455        C  0.17541148  0.09110213  0.78979135     0.08500
C456        C  0.20247307  0.12304447  0.76686139    -0.13600
H457        H  0.26964869  0.15604545  0.75837195     0.12500
H458        H  0.26019061  0.05520130  0.85749576     0.12500
H459        H  0.17685130  0.04105170  0.84015563     0.12500
H460        H  0.18713560  0.14239684  0.74154956     0.12500
C461        C  0.84121234  0.20830557  0.83573350    -0.13600
C462        C  0.87703156  0.23883980  0.85043547     0.08500
C463        C  0.92351741  0.22138890  0.85374471    -0.13600
C464        C  0.93426536  0.17554781  0.84013367    -0.13600
C465        C  0.89873142  0.14661898  0.82311079     0.08500
C466        C  0.85209377  0.16292873  0.82185255    -0.13600
H467        H  0.80491569  0.22020070  0.83286713     0.12500
H468        H  0.95191064  0.24383102  0.86488429     0.12500
H469        H  0.97082568  0.16390378  0.84020260     0.12500
H470        H  0.82452447  0.14156571  0.80786926     0.12500
C471        C  0.75038755  0.41336115  0.83540396    -0.13600
C472        C  0.76053147  0.36583946  0.84420636     0.08500
C473        C  0.72475456  0.33157090  0.83806838    -0.13600
C474        C  0.68099701  0.34406393  0.82114531    -0.13600
C475        C  0.67214680  0.39098232  0.81022871     0.08500
C476        C  0.70662483  0.42574609  0.81828703    -0.13600
H477        H  0.77709309  0.44052582  0.83957540     0.12500
H478        H  0.73123060  0.29463710  0.84475203     0.12500
H479        H  0.65511369  0.31672733  0.81450660     0.12500
H480        H  0.70054227  0.46212202  0.80933668     0.12500
C481        C  0.64312777  0.73891058  0.77087328    -0.13600
C482        C  0.61660072  0.75938933  0.80280334     0.08500
C483        C  0.57994863  0.73317497  0.82091019    -0.13600
C484        C  0.57184760  0.68636665  0.80869206    -0.13600
C485        C  0.60018358  0.66541345  0.77817687     0.08500
C486        C  0.63510590  0.69246257  0.75880238    -0.13600
H487        H  0.67126509  0.75836467  0.75581847     0.12500
H488        H  0.55895543  0.74808209  0.84549964     0.12500
H489        H  0.54413175  0.66628572  0.82370674     0.12500
H490        H  0.65715167  0.67757813  0.73495027     0.12500
C491        C  0.76601145  0.91078126  0.83642881    -0.13600
C492        C  0.74196318  0.87526452  0.81476864     0.08500
C493        C  0.76625049  0.84992548  0.78406635    -0.13600
C494        C  0.81372103  0.85927910  0.77568916    -0.13600
C495        C  0.83799293  0.89418302  0.79775371     0.08500
C496        C  0.81368213  0.92007742  0.82806721    -0.13600
H497        H  0.74834842  0.93068846  0.86030779     0.12500
H498        H  0.74871073  0.82243213  0.76652388     0.12500
H499        H  0.83140707  0.83912892  0.75196719     0.12500
H500        H  0.83133302  0.94739239  0.84562780     0.12500
C501        C  0.44530703  0.05259780  0.90418116    -0.13600
C502        C  0.42004846  0.07776791  0.88376433    -0.15100
C503        C  0.56580065  0.92839631  0.90533692    -0.13600
C504        C  0.59066157  0.90291645  0.88491045    -0.15100
C505        C  0.07131289  0.42357426  0.49240056    -0.13600
C506        C  0.09923947  0.39467481  0.50574985    -0.15100
C507        C  0.94483961  0.54808567  0.49102978    -0.13600
C508        C  0.91585471  0.57615601  0.50400486    -0.15100
C509        C  0.07544003  0.55456608  0.90448128    -0.13600
C510        C  0.10372605  0.58347713  0.89170605    -0.15100
C511        C  0.92293810  0.40080681  0.89073744    -0.13600
C512        C  0.95131789  0.42836488  0.90535122    -0.15100
C513        C  0.56605159  0.05249615  0.49282223    -0.13600
C514        C  0.59177836  0.07753644  0.51314310    -0.15100
C515        C  0.44274571  0.92998291  0.49249254    -0.13600
C516        C  0.41708556  0.90389187  0.51165740    -0.15100
C517        C  0.44643455  0.05736394  0.99268626    -0.13600
C518        C  0.41867647  0.08632089  0.00601762    -0.15100
C519        C  0.34009920  0.28131282  0.05762524    -0.13600
C520        C  0.37447703  0.25045557  0.04117566     0.08500
C521        C  0.42048388  0.26800329  0.03446982    -0.13600
C522        C  0.43244903  0.31421451  0.04638683    -0.13600
C523        C  0.39871020  0.34356576  0.06519085     0.08500
C524        C  0.35227190  0.32713286  0.06989998    -0.13600
H525        H  0.30421175  0.26932172  0.06323400     0.12500
H526        H  0.44779856  0.24537394  0.02194567     0.12500
H527        H  0.46896226  0.32579742  0.04382846     0.12500
H528        H  0.32617066  0.34864617  0.08554114     0.12500
C529        C  0.07500838  0.42889586  0.40413979    -0.13600
C530        C  0.10085804  0.40361281  0.38437543    -0.15100
C531        C  0.30968531  0.36371187  0.25527541    -0.13600
C532        C  0.33604749  0.39968339  0.27401150     0.08500
C533        C  0.31504812  0.42725427  0.30499659    -0.13600
C534        C  0.26899056  0.41739043  0.31833615    -0.13600
C535        C  0.24357621  0.37970297  0.30092593     0.08500
C536        C  0.26395101  0.35386039  0.26854391    -0.13600
H537        H  0.32463736  0.34225404  0.23105430     0.12500
H538        H  0.33459209  0.45569830  0.31957081     0.12500
H539        H  0.25412595  0.43787751  0.34326441     0.12500
H540        H  0.24500487  0.32495956  0.25404826     0.12500
C541        C  0.59722364  0.08091387  0.39091272    -0.13600
C542        C  0.56810147  0.05306851  0.40417872    -0.15100
C543        C  0.67299817  0.27352571  0.32975982    -0.13600
C544        C  0.63844802  0.24247971  0.34581178     0.08500
C545        C  0.59093347  0.25751282  0.34638588    -0.13600
C546        C  0.57811462  0.30118975  0.32919483    -0.13600
C547        C  0.61252014  0.33063116  0.31126532     0.08500
C548        C  0.66006876  0.31681571  0.31232983    -0.13600
H549        H  0.70999279  0.26349180  0.32879575     0.12500
H550        H  0.56341348  0.23473131  0.35849279     0.12500
H551        H  0.54100278  0.31080226  0.32780522     0.12500
H552        H  0.68697959  0.33852345  0.29789873     0.12500
C553        C  0.07580905  0.55303702  0.99249001    -0.13600
C554        C  0.10206225  0.57943822  0.01074757    -0.15100
C555        C  0.32886924  0.57152143  0.06395716    -0.13600
C556        C  0.35146701  0.59845431  0.09469100     0.08500
C557        C  0.32651636  0.63482427  0.11399232    -0.13600
C558        C  0.27978134  0.64386544  0.10336217    -0.13600
C559        C  0.25660557  0.61681815  0.07304485     0.08500
C560        C  0.28163137  0.58056223  0.05325205    -0.13600
H561        H  0.34748978  0.54313585  0.04858095     0.12500
H562        H  0.34279599  0.65624795  0.13764187     0.12500
H563        H  0.26172748  0.67208065  0.11945626     0.12500
H564        H  0.26484271  0.55939081  0.02963432     0.12500
C565        C  0.19924864  0.06233947  0.06888808    -0.13600
C566        C  0.17051797  0.09552066  0.08905661     0.08500
C567        C  0.18430302  0.14300222  0.08998378    -0.13600
C568        C  0.22707070  0.15706635  0.07220179    -0.13600
C569        C  0.25751055  0.12365162  0.05385584     0.08500
C570        C  0.24247512  0.07626264  0.05140296    -0.13600
H571        H  0.18946629  0.02525703  0.06869146     0.12500
H572        H  0.16299511  0.16885921  0.10611103     0.12500
H573        H  0.23721572  0.19392430  0.07465883     0.12500
H574        H  0.26485637  0.04968238  0.03744603     0.12500
C575        C  0.14531961  0.17976880  0.27671482    -0.13600
C576        C  0.11148971  0.15542639  0.29993898     0.08500
C577        C  0.08782151  0.17936211  0.33177775    -0.13600
C578        C  0.09751565  0.22688095  0.34001567    -0.13600
C579        C  0.13136850  0.25126100  0.31681142     0.08500
C580        C  0.15518834  0.22718137  0.28506113    -0.13600
H581        H  0.16386860  0.16232333  0.25189638     0.12500
H582        H  0.06169685  0.16158720  0.35049396     0.12500
H583        H  0.07899420  0.24428012  0.36486181     0.12500
H584        H  0.18150544  0.24498010  0.26645414     0.12500
C585        C  0.82289336  0.06312733  0.34101590    -0.13600
C586        C  0.85400047  0.09841261  0.32682583     0.08500
C587        C  0.84060030  0.14583276  0.32996318    -0.13600
C588        C  0.79567367  0.15781622  0.34473121    -0.13600
C589        C  0.76272630  0.12249281  0.35599029     0.08500
C590        C  0.77763550  0.07503653  0.35559505    -0.13600
H591        H  0.83234603  0.02615547  0.33804915     0.12500
H592        H  0.86374013  0.17346584  0.31854623     0.12500
H593        H  0.78587363  0.19481903  0.34502113     0.12500
H594        H  0.75344716  0.04694407  0.36413544     0.12500
C595        C  0.08026998  0.79740467  0.08504383    -0.13600
C596        C  0.10532291  0.81643910  0.11858100     0.08500
C597        C  0.13938359  0.78882065  0.13844156    -0.13600
C598        C  0.14978889  0.74378349  0.12393121    -0.13600
C599        C  0.12629547  0.72539546  0.08932496     0.08500
C600        C  0.09060360  0.75203250  0.07054417    -0.13600
H601        H  0.05344488  0.81797550  0.06943808     0.12500
H602        H  0.15881493  0.80219806  0.16462128     0.12500
H603        H  0.17714871  0.72368828  0.13934323     0.12500
H604        H  0.07220326  0.73867013  0.04376452     0.12500
C605        C  0.95423303  0.42856676  0.99436785    -0.13600
C606        C  0.92923737  0.40298683  0.01485372    -0.15100
C607        C  0.94626524  0.18271623  0.07981551    -0.13600
C608        C  0.92111419  0.16049001  0.11174664     0.08500
C609        C  0.88623065  0.18588053  0.13276425    -0.13600
C610        C  0.87615704  0.23237197  0.12175465    -0.13600
C611        C  0.90084618  0.25453475  0.08951945     0.08500
C612        C  0.93631139  0.22941970  0.06887774    -0.13600
H613        H  0.97341734  0.16410473  0.06292916     0.12500
H614        H  0.86656969  0.16977960  0.15762120     0.12500
H615        H  0.84865858  0.25087379  0.13842790     0.12500
H616        H  0.95550491  0.24540477  0.04370107     0.12500
C617        C  0.70544857  0.35755285  0.12327954    -0.13600
C618        C  0.68174211  0.39260511  0.10109623     0.08500
C619        C  0.70676523  0.41845484  0.07117782    -0.13600
C620        C  0.75445847  0.40926649  0.06342606    -0.13600
C621        C  0.77800086  0.37369520  0.08510238     0.08500
C622        C  0.75310609  0.34813577  0.11534129    -0.13600
H623        H  0.68718204  0.33736673  0.14665164     0.12500
H624        H  0.68972741  0.44576844  0.05338358     0.12500
H625        H  0.77249587  0.42920492  0.03976866     0.12500
H626        H  0.77033376  0.32046996  0.13273650     0.12500
C627        C  0.41316484  0.89907958  0.39134080    -0.13600
C628        C  0.44133091  0.92818226  0.40426825    -0.15100
C629        C  0.23181989  0.89702629  0.36574692    -0.13600
C630        C  0.24878306  0.85066655  0.36046879     0.08500
C631        C  0.21743130  0.81604372  0.34489992    -0.13600
C632        C  0.17216422  0.82847691  0.33110234    -0.13600
C633        C  0.15691691  0.87544784  0.33340203     0.08500
C634        C  0.18628042  0.90928604  0.35224732    -0.13600
H635        H  0.25469868  0.92451120  0.37783473     0.12500
H636        H  0.22889139  0.77983336  0.34073293     0.12500
H637        H  0.15040783  0.80208124  0.31595632     0.12500
H638        H  0.17546138  0.94600150  0.35347666     0.12500
C639        C  0.42606390  0.72945255  0.33265001    -0.13600
C640        C  0.37856876  0.73718112  0.34356910     0.08500
C641        C  0.34570217  0.69991404  0.33818226    -0.13600
C642        C  0.35972137  0.65668555  0.32087273    -0.13600
C643        C  0.40670780  0.65009174  0.30844849     0.08500
C644        C  0.43984097  0.68653401  0.31497243    -0.13600
H645        H  0.45223089  0.75727354  0.33607209     0.12500
H646        H  0.30879753  0.70459626  0.34628014     0.12500
H647        H  0.33348034  0.62936192  0.31537129     0.12500
H648        H  0.47620892  0.68233200  0.30497429     0.12500
C649        C  0.56918172  0.92975090  0.99400203    -0.13600
C650        C  0.59780984  0.90183212  0.00774166    -0.15100
C651        C  0.59992932  0.72089351  0.04133679    -0.13600
C652        C  0.64620335  0.73918867  0.04441024     0.08500
C653        C  0.68240791  0.70934745  0.05921173    -0.13600
C654        C  0.67210513  0.66391662  0.07339912    -0.13600
C655        C  0.62567871  0.64675081  0.07225877     0.08500
C656        C  0.58978652  0.67496980  0.05516448    -0.13600
H657        H  0.57124237  0.74272667  0.03012942     0.12500
H658        H  0.71856430  0.72187182  0.06198393     0.12500
H659        H  0.69995956  0.64318299  0.08746251     0.12500
H660        H  0.55337164  0.66269898  0.05518404     0.12500
C661        C  0.77262090  0.91387679  0.05861968    -0.13600
C662        C  0.76281204  0.86689664  0.04747706     0.08500
C663        C  0.79949693  0.83315606  0.05046916    -0.13600
C664        C  0.84383934  0.84546693  0.06681471    -0.13600
C665        C  0.85222606  0.89163777  0.08055428     0.08500
C666        C  0.81676989  0.92599409  0.07529421    -0.13600
H667        H  0.74531196  0.94064581  0.05687792     0.12500
H668        H  0.79326412  0.79664033  0.04190062     0.12500
H669        H  0.87039116  0.81831353  0.07115438     0.12500
H670        H  0.82241319  0.96177963  0.08620622     0.12500
C671        C  0.95195880  0.55133063  0.40283100    -0.13600
C672        C  0.92631953  0.57725589  0.38344132    -0.15100
C673        C  0.75111354  0.56520761  0.32975004    -0.13600
C674        C  0.77693727  0.59975157  0.30859866     0.08500
C675        C  0.75586570  0.62295369  0.27508878    -0.13600
C676        C  0.70928046  0.61320212  0.26387378    -0.13600
C677        C  0.68279007  0.57996449  0.28585659     0.08500
C678        C  0.70425191  0.55549647  0.31854393    -0.13600
H679        H  0.76639648  0.54720458  0.35586628     0.12500
H680        H  0.77513278  0.64957927  0.25796989     0.12500
H681        H  0.69385729  0.63211384  0.23830298     0.12500
H682        H  0.68476686  0.52946650  0.33604102     0.12500
C683        C  0.86116133  0.75155008  0.28687403    -0.13600
C684        C  0.88750614  0.72962246  0.31824871     0.08500
C685        C  0.92168321  0.75614058  0.33945481    -0.13600
C686        C  0.92951388  0.80357479  0.32914458    -0.13600
C687        C  0.90350644  0.82500857  0.29733904     0.08500
C688        C  0.86905719  0.79862106  0.27657437    -0.13600
H689        H  0.83443869  0.73222395  0.26981719     0.12500
H690        H  0.94202417  0.74040388  0.36405093     0.12500
H691        H  0.95630805  0.82331341  0.34575337     0.12500
H692        H  0.84842135  0.81402959  0.25204254     0.12500
loop_ 
_geom_bond_atom_site_label_1 
_geom_bond_atom_site_label_2 
_geom_bond_distance 
_geom_bond_site_symmetry_2 
_ccdc_geom_bond_type 
C1            N2   1.347       .  A
C1            N6   1.362       .  A
C1          C684   1.477       .  S
N2            C3   1.347       .  A
C3            N4   1.360       .  A
C3          C674   1.472       .  S
N4            C5   1.363       .  A
C5            N6   1.365       .  A
C5          C672   1.442       .  S
C7            N8   1.364       .  A
C7           N12   1.353       .  A
C7          C662   1.488       .  S
N8            C9   1.364       .  A
C9           N10   1.365       .  A
C9          C650   1.453       .  S
N10          C11   1.365       .  A
C11          N12   1.355       .  A
C11         C652   1.490       .  S
C13          N14   1.357       .  A
C13          N18   1.364       .  A
C13         C640   1.489       .  S
N14          C15   1.358       .  A
C15          N16   1.365       .  A
C15         C630   1.491       .  S
N16          C17   1.363       .  A
C17          N18   1.362       .  A
C17         C627   1.454       .  S
C19          N20   1.362       .  A
C19          N24   1.350       .  A
C19         C611   1.475       .  S
N20          C21   1.362       .  A
C21          N22   1.362       .  A
C21         C606   1.444       .  S
N22          C23   1.362       .  A
C23          N24   1.349       .  A
C23         C621   1.476       .  S
C25          N43   1.345       .  A
C25          C62   1.467       .  S
C25         C633   1.471       .  S
N26          N43   1.320       .  A
N26          N48   1.315       .  A
N26         Co63   2.062       .  S
C27          N52   1.335       .  A
C27          C65   1.453       .  S
C27          H72   1.082       .  S
H28          C69   1.081       .  S
C29          N53   1.350       .  A
C29          C33   1.470       .  S
C29          H58   1.081       .  S
Co30         N48   2.090       .  S
Co30         N38   2.063   1_455  S
Co30         N70   2.060   1_565  S
Co30         N46   2.091   1_465  S
Co30        Cl74   2.475       .  S
N31          C69   1.342       .  A
N31          N38   1.324       .  A
N31         Co32   2.111       .  S
Co32         N35   2.060       .  S
Co32         N52   2.059   1_565  S
Co32         N39   2.115   1_565  S
Co32        Cl74   2.419   1_655  S
C33          N71   1.344       .  A
C33         C665   1.476       .  S
N34          N41   1.324       .  A
N34          N64   1.320       .  A
N34         Co67   2.065       .  S
N35          N53   1.315       .  A
N35          N71   1.320       .  A
N36          C65   1.355       .  A
N36          N46   1.329       .  A
H37          C62   1.081       .  S
N38          N59   1.320       .  A
N39          N57   1.323       .  A
N39          N44   1.326       .  A
C40          N44   1.356       .  A
C40          C68   1.453       .  S
C40         C608   1.474       .  S
N41          C56   1.340       .  A
N41         Co63   2.104       .  S
C42          N70   1.331       .  A
C42          C45   1.453       .  S
C42          H76   1.081       .  S
C45          N66   1.357       .  A
C45         C576   1.474       .  S
N46          N52   1.315       .  A
N47          C73   1.336       .  A
N47          N49   1.315       .  A
N47         Co63   2.060   1_545  S
N48          C62   1.348       .  A
N49          N77   1.328       .  A
N49         Co67   2.091   1_545  S
H50          C73   1.082       .  S
H51          C68   1.081       .  S
N53         Co67   2.096   1_655  S
N54          N66   1.327       .  A
N54          N70   1.323       .  A
N54         Co63   2.114   1_545  S
C55          N59   1.345       .  A
C55          C69   1.468       .  S
C55         C687   1.473       .  S
C56          C75   1.464       .  S
C56          H60   1.081       .  S
N57          C68   1.333       .  A
N57         Co67   2.059   1_645  S
C61          N77   1.353       .  A
C61          C73   1.452       .  S
C61         C566   1.469       .  S
Co63        Cl74   2.424       .  S
N64          C75   1.345       .  A
C65         C586   1.473       .  S
Co67        Cl74   2.475       .  S
C75         C596   1.469       .  S
C78          N79   1.348       .  A
C78          N83   1.361       .  A
C78         C559   1.478       .  S
N79          C80   1.347       .  A
C80          N81   1.358       .  A
C80         C599   1.470       .  S
N81          C82   1.362       .  A
C82          N83   1.364       .  A
C82         C554   1.436       .  S
C84          N85   1.365       .  A
C84          N89   1.356       .  A
C84         C589   1.493       .  S
N85          C86   1.365       .  A
C86          N87   1.364       .  A
C86         C541   1.454       .  S
N87          C88   1.364       .  A
C88          N89   1.356       .  A
C88         C544   1.493       .  S
C90          N91   1.350       .  A
C90          N95   1.360       .  A
C90         C535   1.473       .  S
N91          C92   1.348       .  A
C92          N93   1.361       .  A
C92         C579   1.477       .  S
N93          C94   1.362       .  A
C94          N95   1.361       .  A
C94         C530   1.439       .  S
C96          N97   1.362       .  A
C96         N101   1.354       .  A
C96         C569   1.487       .  S
N97          C98   1.363       .  A
C98          N99   1.365       .  A
C98         C518   1.450       .  S
N99         C100   1.364       .  A
C100        N101   1.354       .  A
C100        C520   1.490       .  S
C102        N120   1.356       .  A
C102        C139   1.452       .  S
C102        C677   1.472       .  S
N103        N120   1.325       .  A
N103        N125   1.322       .  A
N103       Co140   2.113       .  S
C104        N129   1.340       .  A
C104        C142   1.464       .  S
C104        H149   1.081       .  S
H105        C146   1.082       .  S
C106        N130   1.329       .  A
C106        C110   1.451       .  S
C106        H135   1.080       .  S
Co107       N125   2.055       .  S
Co107       N115   2.103       .  S
Co107       N147   2.101       .  S
Co107       N123   2.057       .  S
Co107      Cl151   2.478       .  S
N108        C146   1.337       .  A
N108        N115   1.316       .  A
N108       Co109   2.059       .  S
Co109       N112   2.120       .  S
Co109       N129   2.106       .  S
Co109       N116   2.056       .  S
Co109      Cl151   2.415       .  S
C110        N148   1.358       .  A
C110        C618   1.475       .  S
N111        N118   1.315       .  A
N111        N141   1.328       .  A
N111       Co144   2.093       .  S
N112        N130   1.322       .  A
N112        N148   1.328       .  A
N113        C142   1.344       .  A
N113        N123   1.320       .  A
H114        C139   1.081       .  S
N115        N136   1.330       .  A
N116        N134   1.314       .  A
N116        N121   1.318       .  A
C117        N121   1.342       .  A
C117        C145   1.469       .  S
C117        C523   1.468       .  S
N118        C133   1.333       .  A
N118       Co140   2.051       .  S
C119        N147   1.350       .  A
C119        C122   1.471       .  S
C119        H153   1.081       .  S
C122        N143   1.343       .  A
C122        C643   1.474       .  S
N123        N129   1.323       .  A
N124        C150   1.340       .  A
N124        N126   1.323       .  A
N124       Co140   2.112       .  S
N125        C139   1.333       .  A
N126        N154   1.321       .  A
N126       Co144   2.058       .  S
H127        C150   1.081       .  S
H128        C145   1.081       .  S
N130       Co144   2.052       .  S
N131        N143   1.319       .  A
N131        N147   1.315       .  A
N131       Co140   2.052       .  S
C132        N136   1.356       .  A
C132        C146   1.452       .  S
C132        C547   1.475       .  S
C133        C152   1.451       .  S
C133        H137   1.082       .  S
N134        C145   1.348       .  A
N134       Co144   2.089       .  S
C138        N154   1.345       .  A
C138        C150   1.467       .  S
C138        C556   1.472       .  S
Co140      Cl151   2.412       .  S
N141        C152   1.355       .  A
C142        C532   1.469       .  S
Co144      Cl151   2.481       .  S
C152        C655   1.469       .  S
C155        C628   1.463       .  S
C155        C156   1.411       .  A
C155        C160   1.416       .  A
C156        C515   1.449       .  S
C156        C157   1.401       .  A
C157        H162   1.085       .  S
C157        C158   1.401   1_565  A
C158        C513   1.451       .  S
C158        C159   1.412       .  A
C159        C542   1.461       .  S
C159        C160   1.417   1_545  A
C160        H161   1.084       .  S
C163        C605   1.453       .  S
C163        C164   1.413       .  A
C163        C168   1.401   1_655  A
C164        C512   1.455       .  S
C164        C165   1.414   1_655  A
C165        H170   1.084       .  S
C165        C166   1.411       .  A
C166        C509   1.460       .  S
C166        C167   1.410       .  A
C167        C553   1.447       .  S
C167        C168   1.402       .  A
C168        H169   1.085   1_556  S
C171        C671   1.452       .  S
C171        C172   1.412       .  A
C171        C176   1.402   1_655  A
C172        C507   1.462       .  S
C172        C173   1.416   1_655  A
C173        H178   1.084       .  S
C173        C174   1.416       .  A
C174        C505   1.463       .  S
C174        C175   1.411       .  A
C175        C529   1.450       .  S
C175        C176   1.402       .  A
C176        H177   1.085       .  S
C179        C649   1.461       .  S
C179        C180   1.411       .  A
C179        C184   1.414       .  A
C180        C503   1.447       .  S
C180        C181   1.401       .  A
C181        H186   1.086       .  S
C181        C182   1.400   1_565  A
C182        C501   1.450       .  S
C182        C183   1.411       .  A
C183        C517   1.458       .  S
C183        C184   1.415   1_545  A
C184        H185   1.084   1_556  S
C187        N188   1.360       .  A
C187        N192   1.349       .  A
C187        C482   1.474       .  S
N188        C189   1.363       .  A
C189        N190   1.362       .  A
C189        C504   1.437       .  S
N190        C191   1.360       .  A
C191        N192   1.347       .  A
C191        C492   1.476       .  S
C193        N194   1.362       .  A
C193        N198   1.353       .  A
C193        C472   1.485       .  S
N194        C195   1.363       .  A
C195        N196   1.364       .  A
C195        C511   1.447       .  S
N196        C197   1.363       .  A
C197        N198   1.354       .  A
C197        C462   1.487       .  S
C199        N200   1.361       .  A
C199        N204   1.350       .  A
C199        C452   1.475       .  S
N200        C201   1.362       .  A
C201        N202   1.362       .  A
C201        C502   1.440       .  S
N202        C203   1.361       .  A
C203        N204   1.349       .  A
C203        C442   1.476       .  S
C205        N206   1.364       .  A
C205        N210   1.357       .  A
C205        C435   1.492       .  S
N206        C207   1.363       .  A
C207        N208   1.363       .  A
C207        C510   1.451       .  S
N208        C209   1.364       .  A
C209        N210   1.357       .  A
C209        C422   1.491       .  S
C211        N212   1.356       .  A
C211        N216   1.365       .  A
C211        C412   1.491       .  S
N212        C213   1.355       .  A
C213        N214   1.364       .  A
C213        C402   1.489       .  S
N214        C215   1.364       .  A
C215        N216   1.365       .  A
C215        C506   1.454       .  S
C217        N218   1.361       .  A
C217        N222   1.350       .  A
C217        C385   1.477       .  S
N218        C219   1.361       .  A
C219        N220   1.361       .  A
C219        C514   1.441       .  S
N220        C221   1.361       .  A
C221        N222   1.351       .  A
C221        C392   1.476       .  S
C223        N241   1.344       .  A
C223        C260   1.467       .  S
C223        C425   1.474       .  S
N224        N241   1.322       .  A
N224        N246   1.315       .  A
N224       Co261   2.062       .  S
C225        N250   1.334       .  A
C225        C263   1.451       .  S
C225        H270   1.082       .  S
H226        C267   1.081       .  S
C227        N251   1.349       .  A
C227        C231   1.471       .  S
C227        H256   1.081       .  S
Co228       N246   2.093       .  S
Co228       N236   2.063       .  S
Co228       N268   2.059       .  S
Co228       N244   2.092       .  S
Co228      Cl272   2.476       .  S
N229        C267   1.340       .  A
N229        N236   1.324       .  A
N229       Co230   2.106       .  S
Co230       N233   2.056       .  S
Co230       N250   2.051       .  S
Co230       N237   2.118       .  S
Co230      Cl272   2.416       .  S
C231        N269   1.343       .  A
C231        C372   1.473       .  S
N232        N239   1.325       .  A
N232        N262   1.320       .  A
N232       Co265   2.060       .  S
N233        N251   1.314       .  A
N233        N269   1.319       .  A
N234        C263   1.354       .  A
N234        N244   1.329       .  A
H235        C260   1.081       .  S
N236        N257   1.321       .  A
N237        N255   1.323       .  A
N237        N242   1.327       .  A
C238        N242   1.357       .  A
C238        C266   1.453       .  S
C238        C382   1.475       .  S
N239        C254   1.341       .  A
N239       Co261   2.115       .  S
C240        N268   1.333       .  A
C240        C243   1.453       .  S
C240        H274   1.081       .  S
C243        N264   1.356       .  A
C243        C445   1.474       .  S
N244        N250   1.314       .  A
N245        C271   1.335       .  A
N245        N247   1.315       .  A
N245       Co261   2.057       .  S
N246        C260   1.349       .  A
N247        N275   1.329       .  A
N247       Co265   2.095       .  S
H248        C271   1.082       .  S
H249        C266   1.081       .  S
N251       Co265   2.095       .  S
N252        N264   1.326       .  A
N252        N268   1.323       .  A
N252       Co261   2.116       .  S
C253        N257   1.345       .  A
C253        C267   1.464       .  S
C253        C485   1.470       .  S
C254        C273   1.467       .  S
C254        H258   1.081       .  S
N255        C266   1.332       .  A
N255       Co265   2.059       .  S
C259        N275   1.355       .  A
C259        C271   1.451       .  S
C259        C415   1.472       .  S
Co261      Cl272   2.418       .  S
N262        C273   1.344       .  A
C263        C475   1.469       .  S
Co265      Cl272   2.480       .  S
C273        C362   1.473       .  S
C276        N277   1.364       .  A
C276        N281   1.356       .  A
C276        C352   1.490       .  S
N277        C278   1.363       .  A
C278        N279   1.364       .  A
C278        C508   1.454       .  S
N279        C280   1.365       .  A
C280        N281   1.356       .  A
C280        C375   1.491       .  S
C282        N283   1.347       .  A
C282        N287   1.359       .  A
C282        C345   1.471       .  S
N283        C284   1.348       .  A
C284        N285   1.361       .  A
C284        C365   1.477       .  S
N285        C286   1.364       .  A
C286        N287   1.363       .  A
C286        C516   1.438       .  S
C288        N306   1.357       .  A
C288        C325   1.451       .  S
C288        C495   1.473       .  S
N289        N306   1.326       .  A
N289        N311   1.323       .  A
N289       Co326   2.117   1_655  S
C290        N315   1.341       .  A
C290        C328   1.466       .  S
C290        H335   1.081       .  S
H291        C332   1.082       .  S
C292        N316   1.333       .  A
C292        C296   1.453       .  S
C292        H321   1.081       .  S
Co293       N311   2.056   1_455  S
Co293       N301   2.090   1_465  S
Co293       N333   2.092       .  S
Co293       N309   2.062   1_565  S
Co293      Cl337   2.479       .  S
N294        C332   1.333       .  A
N294        N301   1.314       .  A
N294       Co295   2.051   1_655  S
Co295       N298   2.115   1_455  S
Co295       N315   2.111       .  S
Co295       N302   2.052       .  S
Co295      Cl337   2.415   1_545  S
C296        N334   1.356       .  A
C296        C395   1.474       .  S
N297        N304   1.315       .  A
N297        N327   1.329       .  A
N297       Co330   2.095   1_655  S
N298        N316   1.323       .  A
N298        N334   1.326       .  A
N299        C328   1.345       .  A
N299        N309   1.320       .  A
H300        C325   1.081       .  S
N301        N322   1.328       .  A
N302        N320   1.314       .  A
N302        N307   1.319       .  A
C303        N307   1.343       .  A
C303        C331   1.470       .  S
C303        C405   1.472       .  S
N304        C319   1.336       .  A
N304       Co326   2.060   1_655  S
C305        N333   1.349       .  A
C305        C308   1.469       .  S
C305        H339   1.081       .  S
C308        N329   1.343       .  A
C308        C432   1.473       .  S
N309        N315   1.324       .  A
N310        C336   1.341       .  A
N310        N312   1.324       .  A
N310       Co326   2.109       .  S
N311        C325   1.332       .  A
N312        N340   1.320       .  A
N312       Co330   2.060       .  S
H313        C336   1.081       .  S
H314        C331   1.081       .  S
N316       Co330   2.058   1_645  S
N317        N329   1.320       .  A
N317        N333   1.315       .  A
N317       Co326   2.060       .  S
C318        N322   1.354       .  A
C318        C332   1.450       .  S
C318        C465   1.467       .  S
C319        C338   1.454       .  S
C319        H323   1.082       .  S
N320        C331   1.349       .  A
N320       Co330   2.098   1_545  S
C324        N340   1.344       .  A
C324        C336   1.466       .  S
C324        C342   1.470       .  S
Co326      Cl337   2.417       .  S
N327        C338   1.355       .  A
C328        C455   1.472       .  S
Co330      Cl337   2.477       .  S
C338        C355   1.474       .  S
C341        H347   1.083       .  S
C341        C342   1.409       .  A
C341        C346   1.399       .  A
C342        C343   1.398       .  A
C343        H348   1.082       .  S
C343        C344   1.389       .  A
C344        H349   1.083       .  S
C344        C345   1.407       .  A
C345        C346   1.401       .  A
C346        H350   1.083       .  S
C351        H357   1.083       .  S
C351        C352   1.412       .  A
C351        C356   1.401       .  A
C352        C353   1.406       .  A
C353        H358   1.083       .  S
C353        C354   1.401       .  A
C354        H359   1.083       .  S
C354        C355   1.405       .  A
C355        C356   1.399       .  A
C356        H360   1.083       .  S
C361        H367   1.082       .  S
C361        C362   1.397       .  A
C361        C366   1.389       .  A
C362        C363   1.409       .  A
C363        H368   1.083       .  S
C363        C364   1.401       .  A
C364        H369   1.083       .  S
C364        C365   1.402       .  A
C365        C366   1.409       .  A
C366        H370   1.083       .  S
C371        H377   1.084       .  S
C371        C372   1.406       .  A
C371        C376   1.401       .  A
C372        C373   1.399       .  A
C373        H378   1.083       .  S
C373        C374   1.401       .  A
C374        H379   1.083       .  S
C374        C375   1.412       .  A
C375        C376   1.405       .  A
C376        H380   1.083       .  S
C381        H387   1.083       .  S
C381        C382   1.400       .  A
C381        C386   1.395       .  A
C382        C383   1.408       .  A
C383        H388   1.081       .  S
C383        C384   1.396       .  A
C384        H389   1.083       .  S
C384        C385   1.401       .  A
C385        C386   1.410       .  A
C386        H390   1.083       .  S
C391        H397   1.083       .  S
C391        C392   1.409       .  A
C391        C396   1.394       .  A
C392        C393   1.401       .  A
C393        H398   1.083       .  S
C393        C394   1.397       .  A
C394        H399   1.081       .  S
C394        C395   1.408       .  A
C395        C396   1.399       .  A
C396        H400   1.083       .  S
C401        H407   1.083       .  S
C401        C402   1.405       .  A
C401        C406   1.400       .  A
C402        C403   1.413       .  A
C403        H408   1.083       .  S
C403        C404   1.401       .  A
C404        H409   1.083       .  S
C404        C405   1.398       .  A
C405        C406   1.405       .  A
C406        H410   1.084       .  S
C411        H417   1.083       .  S
C411        C412   1.407       .  A
C411        C416   1.405       .  A
C412        C413   1.411       .  A
C413        H418   1.083       .  S
C413        C414   1.397       .  A
C414        H419   1.084       .  S
C414        C415   1.398       .  A
C415        C416   1.405       .  A
C416        H420   1.083       .  S
C421        H427   1.083       .  S
C421        C422   1.410       .  A
C421        C426   1.399       .  A
C422        C423   1.408       .  A
C423        H428   1.083       .  S
C423        C424   1.405       .  A
C424        H429   1.083       .  S
C424        C425   1.405       .  A
C425        C426   1.398       .  A
C426        H430   1.083       .  S
C431        H437   1.083       .  S
C431        C432   1.405       .  A
C431        C436   1.403       .  A
C432        C433   1.398       .  A
C433        H438   1.083       .  S
C433        C434   1.400       .  A
C434        H439   1.083       .  S
C434        C435   1.412       .  A
C435        C436   1.407       .  A
C436        H440   1.083       .  S
C441        H447   1.083       .  S
C441        C442   1.401       .  A
C441        C446   1.397       .  A
C442        C443   1.409       .  A
C443        H448   1.083       .  S
C443        C444   1.394       .  A
C444        H449   1.083       .  S
C444        C445   1.399       .  A
C445        C446   1.408       .  A
C446        H450   1.081       .  S
C451        H457   1.083       .  S
C451        C452   1.408       .  A
C451        C456   1.391       .  A
C452        C453   1.402       .  A
C453        H458   1.083       .  S
C453        C454   1.399       .  A
C454        H459   1.083       .  S
C454        C455   1.408       .  A
C455        C456   1.399       .  A
C456        H460   1.082       .  S
C461        H467   1.083       .  S
C461        C462   1.411       .  A
C461        C466   1.395       .  A
C462        C463   1.406       .  A
C463        H468   1.083       .  S
C463        C464   1.403       .  A
C464        H469   1.083       .  S
C464        C465   1.406       .  A
C465        C466   1.396       .  A
C466        H470   1.084       .  S
C471        H477   1.083       .  S
C471        C472   1.404       .  A
C471        C476   1.400       .  A
C472        C473   1.411       .  A
C473        H478   1.083       .  S
C473        C474   1.398       .  A
C474        H479   1.083       .  S
C474        C475   1.397       .  A
C475        C476   1.405       .  A
C476        H480   1.083       .  S
C481        H487   1.083       .  S
C481        C482   1.408       .  A
C481        C486   1.388       .  A
C482        C483   1.402       .  A
C483        H488   1.083       .  S
C483        C484   1.400       .  A
C484        H489   1.083       .  S
C484        C485   1.408       .  A
C485        C486   1.398       .  A
C486        H490   1.082       .  S
C491        H497   1.083       .  S
C491        C492   1.400       .  A
C491        C496   1.397       .  A
C492        C493   1.410       .  A
C493        H498   1.083       .  S
C493        C494   1.392       .  A
C494        H499   1.083       .  S
C494        C495   1.398       .  A
C495        C496   1.409       .  A
C496        H500   1.081       .  S
C501        C502   1.209       .  T
C503        C504   1.207       .  T
C505        C506   1.217       .  T
C507        C508   1.217       .  T
C509        C510   1.215       .  T
C511        C512   1.213       .  T
C513        C514   1.209       .  T
C515        C516   1.208       .  T
C517        C518   1.215   1_556  T
C519        H525   1.083       .  S
C519        C520   1.412       .  A
C519        C524   1.397       .  A
C520        C521   1.406       .  A
C521        H526   1.083       .  S
C521        C522   1.403       .  A
C522        H527   1.083       .  S
C522        C523   1.405       .  A
C523        C524   1.398       .  A
C524        H528   1.084       .  S
C529        C530   1.208       .  T
C531        H537   1.082       .  S
C531        C532   1.398       .  A
C531        C536   1.389       .  A
C532        C533   1.408       .  A
C533        H538   1.083       .  S
C533        C534   1.398       .  A
C534        H539   1.083       .  S
C534        C535   1.402       .  A
C535        C536   1.407       .  A
C536        H540   1.083       .  S
C541        C542   1.217       .  T
C543        H549   1.083       .  S
C543        C544   1.412       .  A
C543        C548   1.399       .  A
C544        C545   1.407       .  A
C545        H550   1.083       .  S
C545        C546   1.405       .  A
C546        H551   1.083       .  S
C546        C547   1.405       .  A
C547        C548   1.398       .  A
C548        H552   1.083       .  S
C553        C554   1.206   1_556  T
C555        H561   1.083       .  S
C555        C556   1.409       .  A
C555        C560   1.402       .  A
C556        C557   1.397       .  A
C557        H562   1.081       .  S
C557        C558   1.388       .  A
C558        H563   1.083       .  S
C558        C559   1.409       .  A
C559        C560   1.403       .  A
C560        H564   1.083       .  S
C565        H571   1.083       .  S
C565        C566   1.404       .  A
C565        C570   1.402       .  A
C566        C567   1.397       .  A
C567        H572   1.083       .  S
C567        C568   1.396       .  A
C568        H573   1.083       .  S
C568        C569   1.411       .  A
C569        C570   1.406       .  A
C570        H574   1.083       .  S
C575        H581   1.083       .  S
C575        C576   1.399       .  A
C575        C580   1.395       .  A
C576        C577   1.408       .  A
C577        H582   1.081       .  S
C577        C578   1.396       .  A
C578        H583   1.083       .  S
C578        C579   1.400       .  A
C579        C580   1.410       .  A
C580        H584   1.083       .  S
C585        H591   1.083       .  S
C585        C586   1.406       .  A
C585        C590   1.404       .  A
C586        C587   1.397       .  A
C587        H592   1.083       .  S
C587        C588   1.399       .  A
C588        H593   1.083       .  S
C588        C589   1.412       .  A
C589        C590   1.407       .  A
C590        H594   1.083       .  S
C595        H601   1.083       .  S
C595        C596   1.408       .  A
C595        C600   1.398       .  A
C596        C597   1.399       .  A
C597        H602   1.082       .  S
C597        C598   1.390       .  A
C598        H603   1.083       .  S
C598        C599   1.407       .  A
C599        C600   1.400       .  A
C600        H604   1.083       .  S
C605        C606   1.211   1_556  T
C607        H613   1.081       .  S
C607        C608   1.409       .  A
C607        C612   1.397       .  A
C608        C609   1.399       .  A
C609        H614   1.083       .  S
C609        C610   1.393       .  A
C610        H615   1.083       .  S
C610        C611   1.409       .  A
C611        C612   1.401       .  A
C612        H616   1.083       .  S
C617        H623   1.083       .  S
C617        C618   1.399       .  A
C617        C622   1.396       .  A
C618        C619   1.409       .  A
C619        H624   1.080       .  S
C619        C620   1.394       .  A
C620        H625   1.083       .  S
C620        C621   1.399       .  A
C621        C622   1.410       .  A
C622        H626   1.083       .  S
C627        C628   1.217       .  T
C629        H635   1.083       .  S
C629        C630   1.407       .  A
C629        C634   1.402       .  A
C630        C631   1.411       .  A
C631        H636   1.083       .  S
C631        C632   1.400       .  A
C632        H637   1.083       .  S
C632        C633   1.399       .  A
C633        C634   1.405       .  A
C634        H638   1.083       .  S
C639        H645   1.083       .  S
C639        C640   1.404       .  A
C639        C644   1.399       .  A
C640        C641   1.412       .  A
C641        H646   1.083       .  S
C641        C642   1.403       .  A
C642        H647   1.083       .  S
C642        C643   1.399       .  A
C643        C644   1.405       .  A
C644        H648   1.084       .  S
C649        C650   1.216   1_556  T
C651        H657   1.083       .  S
C651        C652   1.406       .  A
C651        C656   1.404       .  A
C652        C653   1.412       .  A
C653        H658   1.083       .  S
C653        C654   1.396       .  A
C654        H659   1.084       .  S
C654        C655   1.396       .  A
C655        C656   1.406       .  A
C656        H660   1.083       .  S
C661        H667   1.083       .  S
C661        C662   1.403       .  A
C661        C666   1.400       .  A
C662        C663   1.413       .  A
C663        H668   1.083       .  S
C663        C664   1.402       .  A
C664        H669   1.083       .  S
C664        C665   1.399       .  A
C665        C666   1.407       .  A
C666        H670   1.083       .  S
C671        C672   1.210       .  T
C673        H679   1.083       .  S
C673        C674   1.400       .  A
C673        C678   1.398       .  A
C674        C675   1.408       .  A
C675        H680   1.083       .  S
C675        C676   1.391       .  A
C676        H681   1.083       .  S
C676        C677   1.398       .  A
C677        C678   1.409       .  A
C678        H682   1.081       .  S
C683        H689   1.083       .  S
C683        C684   1.410       .  A
C683        C688   1.390       .  A
C684        C685   1.401       .  A
C685        H690   1.083       .  S
C685        C686   1.400       .  A
C686        H691   1.083       .  S
C686        C687   1.409       .  A
C687        C688   1.398       .  A
C688        H692   1.082       .  S
