geometry optimzed in LAMMPS
_audit_creation_date              2020-12-01 
_audit_creation_method            'lammps2cif' 
_symmetry_space_group_name_H-M    'P1' 
_symmetry_Int_Tables_number       1 
_symmetry_cell_setting            triclinic 
loop_ 
_symmetry_equiv_pos_as_xyz 
  x,y,z 
_cell_length_a                    56.86612374 
_cell_length_b                    57.308279441675744 
_cell_length_c                    33.49214569574766 
_cell_angle_alpha                 89.89072939567653 
_cell_angle_beta                  89.94432355752011 
_cell_angle_gamma                 90.0137142681589 
loop_ 
_atom_site_label 
_atom_site_type_symbol 
_atom_site_fract_x 
_atom_site_fract_y 
_atom_site_fract_z 
_atom_site_charge 
N1          N  0.93026859  0.32048721  0.80628403    -0.26700
N2          N  0.94277507  0.33991622  0.80420953    -0.34500
C3          C  0.95918881  0.33966629  0.83307180     0.01700
C4          C  0.95680650  0.31918777  0.85468496     0.07700
C5          C  0.93823879  0.30750808  0.83699814    -0.05400
H6          H  0.97091739  0.35404890  0.83943409     0.08400
H7          H  0.93065399  0.29108475  0.84645615     0.09600
Cu8        Cu  0.93444026  0.36794278  0.76765262     0.44200
Cu9        Cu  0.90223791  0.31319657  0.76825827     0.42000
Cu10       Cu  0.88056474  0.36311952  0.71239417     0.43900
N11         N  0.91799638  0.39618627  0.74084017    -0.34100
N12         N  0.89753678  0.39465115  0.72233840    -0.28300
C13         C  0.89043643  0.41620684  0.71181034    -0.04400
C14         C  0.90735747  0.43202404  0.72417466     0.07800
C15         C  0.92461730  0.41870192  0.74217523     0.01600
H16         H  0.87425709  0.41999848  0.69613148     0.09300
H17         H  0.94050763  0.42498586  0.75628622     0.08300
N18         N  0.86846497  0.32925784  0.70439996    -0.35500
N19         N  0.87625735  0.31097631  0.72459794    -0.27700
C20         C  0.86519122  0.29168885  0.71133446    -0.02900
C21         C  0.84972536  0.29822061  0.68130214     0.05700
C22         C  0.85229054  0.32211751  0.67785461     0.03800
H23         H  0.86830071  0.27428856  0.72269525     0.08900
H24         H  0.84314684  0.33351430  0.65726963     0.07700
N25         N  0.91960992  0.72283939  0.64911203    -0.26700
N26         N  0.91927487  0.70212172  0.63179459    -0.34500
C27         C  0.93473512  0.70199707  0.60139469     0.01700
C28         C  0.94559232  0.72358786  0.59968607     0.07700
C29         C  0.93571874  0.73631314  0.63055867    -0.05400
H30         H  0.93878904  0.68684158  0.58344021     0.08400
H31         H  0.94019826  0.75392354  0.63931038     0.09600
Cu32       Cu  0.90082331  0.67371998  0.65401216     0.44200
Cu33       Cu  0.89836960  0.73120142  0.69792253     0.42000
Cu34       Cu  0.86918572  0.68206704  0.74643055     0.43900
N35         N  0.88633170  0.64657816  0.68684171    -0.34100
N36         N  0.87497943  0.64950301  0.72092575    -0.28300
C37         C  0.86906081  0.62843538  0.73568634    -0.04400
C38         C  0.87725983  0.61144243  0.70987669     0.07800
C39         C  0.88807288  0.62362446  0.67912286     0.01600
H40         H  0.85997744  0.62565858  0.76370656     0.09300
H41         H  0.89698595  0.61647544  0.65337347     0.08300
N42         N  0.86448945  0.71666335  0.76334353    -0.35500
N43         N  0.87458994  0.73456767  0.74513476    -0.27700
C44         C  0.86598343  0.75449238  0.76063217    -0.02900
C45         C  0.84991001  0.74890725  0.79022290     0.05700
C46         C  0.84945101  0.72473535  0.79115455     0.03800
H47         H  0.87052591  0.77180133  0.75022725     0.08900
H48         H  0.83808093  0.71378140  0.80907878     0.07700
N49         N  0.09358051  0.30612453  0.15266597    -0.26700
N50         N  0.08299047  0.32656896  0.15634533    -0.34500
C51         C  0.06728486  0.32908921  0.12667309     0.01700
C52         C  0.06816552  0.30942749  0.10281016     0.07700
C53         C  0.08508521  0.29528578  0.12004849    -0.05400
H54         H  0.05721799  0.34479918  0.12128254     0.08400
H55         H  0.09130609  0.27867177  0.10896924     0.09600
Cu56       Cu  0.09331310  0.35236763  0.19595839     0.44200
Cu57       Cu  0.12040161  0.29467403  0.19041218     0.42000
Cu58       Cu  0.14461331  0.33942253  0.25439963     0.43900
N59         N  0.11198647  0.37757535  0.22695788    -0.34100
N60         N  0.13124367  0.37284876  0.24748728    -0.28300
C61         C  0.14081762  0.39295269  0.26022791    -0.04400
C62         C  0.12690971  0.41122429  0.24725394     0.07800
C63         C  0.10872006  0.40083542  0.22622974     0.01600
H64         H  0.15710485  0.39421787  0.27675960     0.09300
H65         H  0.09479575  0.40948269  0.20995487     0.08300
N66         N  0.15571707  0.30495341  0.25528941    -0.35500
N67         N  0.14714642  0.28853101  0.23174296    -0.27700
C68         C  0.15857217  0.26838994  0.23919990    -0.02900
C69         C  0.17499770  0.27230476  0.26897400     0.05700
C70         C  0.17267919  0.29573080  0.27839313     0.03800
H71         H  0.15519843  0.25207980  0.22402744     0.08900
H72         H  0.18278268  0.30555773  0.29992494     0.07700
N73         N  0.09696470  0.70994509  0.32436976    -0.26700
N74         N  0.09569640  0.69048417  0.34551395    -0.34500
C75         C  0.08096711  0.69367411  0.37636251     0.01700
C76         C  0.07225607  0.71617538  0.37451537     0.07700
C77         C  0.08260685  0.72597670  0.34095736    -0.05400
H78         H  0.07592621  0.68013384  0.39724541     0.08400
H79         H  0.07969017  0.74333041  0.32919993     0.09600
Cu80       Cu  0.11103194  0.65928204  0.32874618     0.44200
Cu81       Cu  0.11842029  0.71297639  0.27410136     0.42000
Cu82       Cu  0.14682264  0.65858247  0.24097075     0.43900
N83         N  0.12276086  0.62880170  0.30242605    -0.34100
N84         N  0.13596311  0.62835271  0.26995855    -0.28300
C85         C  0.13906219  0.60600641  0.25872481    -0.04400
C86         C  0.12704988  0.59178433  0.28541365     0.07800
C87         C  0.11693935  0.60685428  0.31259215     0.01600
H88         H  0.14840889  0.60068082  0.23212103     0.09300
H89         H  0.10545145  0.60225741  0.33715366     0.08300
N90         N  0.15418478  0.69146631  0.21780405    -0.35500
N91         N  0.14381383  0.71102697  0.22925520    -0.27700
C92         C  0.15340197  0.72903850  0.20910933    -0.02900
C93         C  0.17063040  0.72038108  0.18383698     0.05700
C94         C  0.17060848  0.69655466  0.19020999     0.03800
H95         H  0.14864326  0.74711386  0.21360329     0.08900
H96         H  0.18207680  0.68384995  0.17638166     0.07700
N97         N  0.31961666  0.09587719  0.57268501    -0.26700
N98         N  0.34220114  0.09148066  0.57781188    -0.34500
C99         C  0.34475742  0.07362262  0.60323086     0.01700
C100        C  0.32278531  0.06615575  0.61489386     0.07700
C101        C  0.30704195  0.08065297  0.59503077    -0.05400
H102        H  0.36149243  0.06608863  0.61161860     0.08400
H103        H  0.28804751  0.07974530  0.59569598     0.09600
Cu104      Cu  0.36889269  0.10813743  0.54778277     0.44200
Cu105      Cu  0.30886144  0.12175054  0.53279968     0.42000
Cu106      Cu  0.35742523  0.15132672  0.47461262     0.43900
N107        N  0.39519926  0.12388563  0.51539755    -0.34100
N108        N  0.39164027  0.14051170  0.48872399    -0.28300
C109        C  0.41266967  0.14684918  0.47322861    -0.04400
C110        C  0.42999668  0.13319698  0.49097712     0.07800
C111        C  0.41818876  0.11884473  0.51722209     0.01600
H112        H  0.41505787  0.15969120  0.44985983     0.09300
H113        H  0.42575205  0.10548886  0.53614195     0.08300
N114        N  0.32125766  0.15735869  0.46769587    -0.35500
N115        N  0.30434159  0.14742793  0.48912271    -0.27700
C116        C  0.28349053  0.15637524  0.47787740    -0.02900
C117        C  0.28725251  0.17235817  0.44763762     0.05700
C118        C  0.31138880  0.17256274  0.44190094     0.03800
H119        H  0.26673779  0.15157374  0.49086130     0.08900
H120        H  0.32116082  0.18347767  0.42137222     0.07700
N121        N  0.72013161  0.09178538  0.40666256    -0.26700
N122        N  0.69775299  0.08999106  0.39649263    -0.34500
C123        C  0.69545435  0.07367658  0.36812657     0.01700
C124        C  0.71746332  0.06463563  0.35960530     0.07700
C125        C  0.73270945  0.07637957  0.38490285    -0.05400
H126        H  0.67884883  0.06893055  0.35468623     0.08400
H127        H  0.75159446  0.07433496  0.38655274     0.09600
Cu128      Cu  0.67083390  0.11007752  0.41958315     0.44200
Cu129      Cu  0.73179803  0.11645778  0.44799949     0.42000
Cu130      Cu  0.68517017  0.15634331  0.48499358     0.43900
N131        N  0.64561136  0.13173465  0.44399687    -0.34100
N132        N  0.65072017  0.14916654  0.46817787    -0.28300
C133        C  0.63056021  0.15957135  0.47961355    -0.04400
C134        C  0.61188186  0.14804179  0.46178834     0.07800
C135        C  0.62218747  0.13048634  0.43932065     0.01600
H136        H  0.62952824  0.17417711  0.49995861     0.09300
H137        H  0.61347846  0.11749761  0.42123031     0.08300
N138        N  0.72062256  0.15852654  0.49989292    -0.35500
N139        N  0.73732704  0.14419270  0.48735067    -0.27700
C140        C  0.75794249  0.15079606  0.50363638    -0.02900
C141        C  0.75408005  0.17018397  0.52736815     0.05700
C142        C  0.73018182  0.17453964  0.52426230     0.03800
H143        H  0.77459219  0.14219162  0.49837711     0.08900
H144        H  0.72026462  0.18823748  0.53869086     0.07700
N145        N  0.29507299  0.91124299  0.87294629    -0.26700
N146        N  0.31731001  0.91520269  0.86383598    -0.34500
C147        C  0.31843332  0.93092341  0.83418385     0.01700
C148        C  0.29572888  0.93729517  0.82395813     0.07700
C149        C  0.28133504  0.92458722  0.84936020    -0.05400
H150        H  0.33468238  0.93748949  0.82166096     0.08400
H151        H  0.26232302  0.92489330  0.85041671     0.09600
Cu152      Cu  0.34522166  0.89968450  0.89280663     0.44200
Cu153      Cu  0.28564066  0.88734136  0.91682712     0.42000
Cu154      Cu  0.33466776  0.85664678  0.96857621     0.43900
N155        N  0.37173939  0.88412943  0.92528087    -0.34100
N156        N  0.36839624  0.86796814  0.95291333    -0.28300
C157        C  0.38942953  0.86233224  0.96897792    -0.04400
C158        C  0.40660551  0.87583452  0.95051705     0.07800
C159        C  0.39468722  0.88939232  0.92320042     0.01600
H160        H  0.39186552  0.85013428  0.99331281     0.09300
H161        H  0.40210227  0.90259933  0.90378563     0.08300
N162        N  0.29886310  0.85078682  0.97896427    -0.35500
N163        N  0.28152535  0.86184017  0.96050683    -0.27700
C164        C  0.26085144  0.85399200  0.97470330    -0.02900
C165        C  0.26520852  0.83727694  0.00350420     0.05700
C166        C  0.28953557  0.83566060  0.00544687     0.03800
H167        H  0.24381927  0.86012869  0.96486305     0.08900
H168        H  0.29981360  0.82445242  0.02469003     0.07700
N169        N  0.69088140  0.91146283  0.09827434    -0.26700
N170        N  0.66815018  0.91606896  0.10059280    -0.34500
C171        C  0.66475612  0.93400849  0.12558180     0.01700
C172        C  0.68630374  0.94117136  0.13990353     0.07700
C173        C  0.70261848  0.92649084  0.12202950    -0.05400
H174        H  0.64779198  0.94162117  0.13223347     0.08400
H175        H  0.72153982  0.92703701  0.12514938     0.09600
Cu176      Cu  0.64248548  0.89907452  0.06817957     0.44200
Cu177      Cu  0.70403194  0.88583838  0.06022657     0.42000
Cu178      Cu  0.66072152  0.85979313  0.99115542     0.43900
N179        N  0.61904343  0.88177355  0.03165597    -0.34100
N180        N  0.62550323  0.86731641  0.00299696    -0.28300
C181        C  0.60604951  0.85867188  0.98543666    -0.04400
C182        C  0.58648261  0.86828219  0.00384947     0.07800
C183        C  0.59545908  0.88284498  0.03307334     0.01600
H184        H  0.60612263  0.84618981  0.96124339     0.09300
H185        H  0.58570471  0.89319144  0.05437576     0.08300
N186        N  0.69679937  0.85309610  0.98988839    -0.35500
N187        N  0.71210408  0.86165369  0.01581319    -0.27700
C188        C  0.73348484  0.85267833  0.00798088    -0.02900
C189        C  0.73172462  0.83807092  0.97532462     0.05700
C190        C  0.70819237  0.83874145  0.96459096     0.03800
H191        H  0.74924970  0.85664422  0.02471780     0.08900
H192        H  0.69980489  0.82907615  0.94082899     0.07700
C193        C  0.51857684  0.87199080  0.00141856     0.19300
C194        C  0.50300152  0.89092655  0.00345441    -0.18800
C195        C  0.47900158  0.88782664  0.99642257    -0.11100
C196        C  0.46994612  0.86558189  0.98766867     0.21600
C197        C  0.48536160  0.84645911  0.98688231    -0.20400
C198        C  0.50952061  0.84962663  0.99332973    -0.11200
C199        C  0.44446627  0.86212461  0.97969879    -0.15400
C200        C  0.43192339  0.87809425  0.95943362    -0.29300
C201        C  0.54386833  0.87619448  0.00987557    -0.03500
C202        C  0.56149683  0.86324575  0.99472944    -0.40100
H203        H  0.50946079  0.90824841  0.01030078     0.12700
H204        H  0.46748894  0.90282482  0.99842178     0.12300
H205        H  0.47873635  0.82911275  0.98074662     0.11800
H206        H  0.52094062  0.83453050  0.99274419     0.12000
H207        H  0.43625477  0.84583860  0.98877220     0.14800
H208        H  0.44076021  0.89338638  0.94743178     0.13500
H209        H  0.54809897  0.89133286  0.02793452     0.11200
H210        H  0.55768924  0.84904469  0.97434202     0.13200
C211        C  0.71173527  0.02390883  0.26797914     0.19300
C212        C  0.69720959  0.02502852  0.23420327    -0.18800
C213        C  0.69747544  0.00731964  0.20575589    -0.11100
C214        C  0.71206058  0.98772821  0.21066767     0.21600
C215        C  0.72763314  0.98713752  0.24320062    -0.20400
C216        C  0.72740715  0.00500699  0.27185666    -0.11200
C217        C  0.71042105  0.96747135  0.18305338    -0.15400
C218        C  0.68971877  0.96127395  0.16675390    -0.29300
C219        C  0.70828438  0.04189592  0.29936846    -0.03500
C220        C  0.72340231  0.04680650  0.32914453    -0.40100
H221        H  0.68517012  0.03949462  0.23017110     0.12700
H222        H  0.68593065  0.00885938  0.18021253     0.12300
H223        H  0.73922497  0.97233926  0.24738444     0.11800
H224        H  0.73875091  0.00342491  0.29760933     0.12000
H225        H  0.72591733  0.95678794  0.17810990     0.14800
H226        H  0.67396781  0.97103525  0.17426701     0.13500
H227        H  0.69218204  0.05199311  0.29725320     0.11200
H228        H  0.74040346  0.03829272  0.33077705     0.13200
C229        C  0.29857543  0.97919962  0.73366753     0.19300
C230        C  0.31254514  0.97930784  0.69917382    -0.18800
C231        C  0.31136107  0.99775511  0.67212261    -0.11100
C232        C  0.29644114  0.01685549  0.67927770     0.21600
C233        C  0.28129149  0.01614537  0.71238439    -0.20400
C234        C  0.28241640  0.99750975  0.73960870    -0.11200
C235        C  0.29787110  0.03810617  0.65383500    -0.15400
C236        C  0.31886409  0.04551756  0.64035998    -0.29300
C237        C  0.30334327  0.96093646  0.76407727    -0.03500
C238        C  0.28846858  0.95450570  0.79334493    -0.40100
H239        H  0.32496227  0.96533771  0.69365833     0.12700
H240        H  0.32266247  0.99735637  0.64609145     0.12300
H241        H  0.26951125  0.03058093  0.71831154     0.11800
H242        H  0.27153385  0.99813241  0.76608796     0.12000
H243        H  0.28211536  0.04829312  0.64820496     0.14800
H244        H  0.33461408  0.03604626  0.64900681     0.13500
H245        H  0.32023962  0.95218740  0.76192562     0.11200
H246        H  0.27079078  0.96156940  0.79471990     0.13200
C247        C  0.49443713  0.14762281  0.46462174     0.19300
C248        C  0.50932210  0.16632933  0.47427071    -0.18800
C249        C  0.53380346  0.16420547  0.47028387    -0.11100
C250        C  0.54381777  0.14332498  0.45600193     0.21600
C251        C  0.52878060  0.12491256  0.44540996    -0.20400
C252        C  0.50444054  0.12696289  0.44976276    -0.11200
C253        C  0.56960326  0.13992069  0.45045444    -0.15400
C254        C  0.58649317  0.15313895  0.46733222    -0.29300
C255        C  0.46855452  0.14986317  0.47009289    -0.03500
C256        C  0.45546992  0.13176296  0.48273593    -0.40100
H257        H  0.50200161  0.18250443  0.48542606     0.12700
H258        H  0.54464573  0.17903831  0.47786623     0.12300
H259        H  0.53590938  0.10874922  0.43383512     0.11800
H260        H  0.49343840  0.11242546  0.44102339     0.12000
H261        H  0.57484703  0.12507220  0.43248514     0.14800
H262        H  0.58187637  0.16759953  0.48661854     0.13500
H263        H  0.46044334  0.16689556  0.46641884     0.11200
H264        H  0.46406160  0.11540726  0.49025952     0.13200
C265        C  0.20249930  0.76933227  0.12531728     0.19300
C266        C  0.19530098  0.78987014  0.10598108    -0.18800
C267        C  0.21115443  0.80282609  0.08281546    -0.11100
C268        C  0.23470102  0.79552866  0.07873019     0.21600
C269        C  0.24196400  0.77527638  0.09886291    -0.20400
C270        C  0.22610846  0.76229508  0.12182195    -0.11200
C271        C  0.25248413  0.80876815  0.05508129    -0.15400
C272        C  0.24709399  0.82454237  0.02670175    -0.29300
C273        C  0.18532496  0.75626553  0.15036732    -0.03500
C274        C  0.18714062  0.73322648  0.15766204    -0.40100
H275        H  0.17732311  0.79590408  0.10878564     0.12700
H276        H  0.20491971  0.81870867  0.06897552     0.12300
H277        H  0.26004910  0.76945080  0.09685855     0.11800
H278        H  0.23257999  0.74706737  0.13745975     0.12000
H279        H  0.27085465  0.80479700  0.06066238     0.14800
H280        H  0.22889216  0.82821700  0.01947054     0.13500
H281        H  0.17042584  0.76584888  0.16227559     0.11200
H282        H  0.20106026  0.72316432  0.14373149     0.13200
C283        C  0.22090357  0.24227896  0.33724038     0.19300
C284        C  0.22516674  0.24338793  0.37847449    -0.18800
C285        C  0.24128072  0.22828662  0.39659235    -0.11100
C286        C  0.25387053  0.21200722  0.37365713     0.21600
C287        C  0.25000127  0.21116152  0.33228708    -0.20400
C288        C  0.23350216  0.22597603  0.31422956    -0.11200
C289        C  0.27194174  0.19667212  0.39208827    -0.15400
C290        C  0.26911193  0.18709282  0.42848315    -0.29300
C291        C  0.20415535  0.25921887  0.31919832    -0.03500
C292        C  0.19168629  0.25501530  0.28579305    -0.40100
H293        H  0.21596786  0.25600853  0.39677517     0.12700
H294        H  0.24433479  0.22978117  0.42838977     0.12300
H295        H  0.25974241  0.19897371  0.31394107     0.11800
H296        H  0.23115189  0.22506678  0.28221385     0.12000
H297        H  0.28751383  0.19248155  0.37470089     0.14800
H298        H  0.25263851  0.18951560  0.44439282     0.13500
H299        H  0.20126463  0.27541756  0.33522997     0.11200
H300        H  0.19311131  0.23825678  0.27095108     0.13200
C301        C  0.13041863  0.52671640  0.25657296     0.19300
C302        C  0.14881220  0.51140282  0.24699004    -0.18800
C303        C  0.14463334  0.48744397  0.24318410    -0.11100
C304        C  0.12182161  0.47838775  0.24834764     0.21600
C305        C  0.10333326  0.49378739  0.25689981    -0.20400
C306        C  0.10756849  0.51768245  0.26127042    -0.11200
C307        C  0.11657727  0.45317008  0.24342852    -0.15400
C308        C  0.13216376  0.43630465  0.25231215    -0.29300
C309        C  0.13530135  0.55211561  0.25950181    -0.03500
C310        C  0.12307434  0.56632889  0.28373586    -0.40100
H311        H  0.16647604  0.51800174  0.24254147     0.12700
H312        H  0.15916717  0.47616157  0.23531034     0.12300
H313        H  0.08555651  0.48728356  0.26035399     0.11800
H314        H  0.09283422  0.52908841  0.26735467     0.12000
H315        H  0.09897818  0.44837515  0.23390610     0.14800
H316        H  0.14920257  0.44087410  0.26462771     0.13500
H317        H  0.14979107  0.55913028  0.24206561     0.11200
H318        H  0.10975055  0.55913247  0.30347160     0.13200
C319        C  0.76955762  0.80219832  0.90167155     0.19300
C320        C  0.77328678  0.80383353  0.86033201    -0.18800
C321        C  0.79086411  0.79063232  0.84174276    -0.11100
C322        C  0.80481508  0.77511403  0.86408079     0.21600
C323        C  0.80089644  0.77325036  0.90537224    -0.20400
C324        C  0.78361832  0.78681491  0.92410723    -0.11200
C325        C  0.82217153  0.75939603  0.84455598    -0.15400
C326        C  0.83436971  0.76544505  0.81163108    -0.29300
C327        C  0.75009528  0.81578879  0.92010299    -0.03500
C328        C  0.75107899  0.82427908  0.95749634    -0.40100
H329        H  0.76249175  0.81532513  0.84232816     0.12700
H330        H  0.79293783  0.79200492  0.80969419     0.12300
H331        H  0.81114639  0.76115292  0.92312842     0.11800
H332        H  0.78079741  0.78469126  0.95587545     0.12000
H333        H  0.82513719  0.74239424  0.85802434     0.14800
H334        H  0.83294655  0.78304043  0.79981025     0.13500
H335        H  0.73498984  0.81991563  0.90154773     0.11200
H336        H  0.76693163  0.82195493  0.97511005     0.13200
C337        C  0.98947610  0.72537749  0.51214658     0.19300
C338        C  0.98723670  0.72627059  0.47043613    -0.18800
C339        C  0.00718712  0.72608566  0.44589626    -0.11100
C340        C  0.02976505  0.72438445  0.46273139     0.21600
C341        C  0.03201348  0.72425239  0.50447829    -0.20400
C342        C  0.01209035  0.72502177  0.52901604    -0.11200
C343        C  0.05068073  0.71897803  0.43788191    -0.15400
C344        C  0.05349092  0.72613780  0.39988488    -0.29300
C345        C  0.96821377  0.72160041  0.53705260    -0.03500
C346        C  0.96561909  0.73040900  0.57398382    -0.40100
H347        H  0.96997098  0.72628782  0.45679975     0.12700
H348        H  0.00481378  0.72567283  0.41384037     0.12300
H349        H  0.04920335  0.72262221  0.51811558     0.11800
H350        H  0.01435421  0.72381381  0.56105047     0.12000
H351        H  0.06401262  0.70780750  0.45114768     0.14800
H352        H  0.04155086  0.73882501  0.38689247     0.13500
H353        H  0.95423339  0.71094267  0.52455832     0.11200
H354        H  0.97840464  0.74271342  0.58563127     0.13200
C355        C  0.81566018  0.24584867  0.63649633     0.19300
C356        C  0.82073499  0.22217349  0.62988554    -0.18800
C357        C  0.80529306  0.20805084  0.60801374    -0.11100
C358        C  0.78428048  0.21735975  0.59250589     0.21600
C359        C  0.77898859  0.24086980  0.59995086    -0.20400
C360        C  0.79442447  0.25496913  0.62159779    -0.11200
C361        C  0.76690474  0.20317773  0.56983125    -0.15400
C362        C  0.77200416  0.18319026  0.55054392    -0.29300
C363        C  0.83237574  0.26028457  0.66021648    -0.03500
C364        C  0.83348048  0.28371115  0.65738724    -0.40100
H365        H  0.83675445  0.21457917  0.64162918     0.12700
H366        H  0.80969462  0.18985065  0.60406147     0.12300
H367        H  0.76275446  0.24840860  0.58896649     0.11800
H368        H  0.78932694  0.27283212  0.62724452     0.12000
H369        H  0.74922047  0.21018494  0.56768201     0.14800
H370        H  0.78981233  0.17642085  0.55050546     0.13500
H371        H  0.84455787  0.25122738  0.67980554     0.11200
H372        H  0.82238080  0.29288516  0.63622971     0.13200
C373        C  0.00153943  0.31758048  0.94103284     0.19300
C374        C  0.02618568  0.31781287  0.94339867    -0.18800
C375        C  0.03750361  0.31617065  0.98040504    -0.11100
C376        C  0.02429655  0.31486331  0.01583879     0.21600
C377        C  0.99967098  0.31456301  0.01348081    -0.20400
C378        C  0.98836351  0.31562094  0.97643587    -0.11200
C379        C  0.03569493  0.31624112  0.05555814    -0.15400
C380        C  0.05628476  0.30584546  0.06406424    -0.29300
C381        C  0.99002226  0.32174962  0.90191141    -0.03500
C382        C  0.96899923  0.31267047  0.89205065    -0.40100
H383        H  0.03668846  0.31965716  0.91657100     0.12700
H384        H  0.05651526  0.31701633  0.98140282     0.12300
H385        H  0.98915908  0.31390213  0.04045556     0.11800
H386        H  0.96933813  0.31601505  0.97571258     0.12000
H387        H  0.02660988  0.32593178  0.07878161     0.14800
H388        H  0.06455374  0.29444884  0.04231131     0.13500
H389        H  0.99927646  0.33263201  0.88043077     0.11200
H390        H  0.96045289  0.30023168  0.91179918     0.13200
C391        C  0.88713436  0.54491558  0.69921314     0.19300
C392        C  0.90604496  0.53170408  0.68457563    -0.18800
C393        C  0.90660896  0.50749425  0.68960931    -0.11100
C394        C  0.88804243  0.49590110  0.70901194     0.21600
C395        C  0.86883450  0.50898191  0.72281781    -0.20400
C396        C  0.86840590  0.53327647  0.71825514    -0.11200
C397        C  0.88786002  0.47013386  0.71363048    -0.15400
C398        C  0.90758855  0.45765542  0.71951751    -0.29300
C399        C  0.88735809  0.57060332  0.69280849    -0.03500
C400        C  0.87559513  0.58588528  0.71587896    -0.40100
H401        H  0.92052343  0.54017756  0.66927314     0.12700
H402        H  0.92134073  0.49784294  0.67754422     0.12300
H403        H  0.85416232  0.50037094  0.73733136     0.11800
H404        H  0.85319203  0.54273746  0.72887921     0.12000
H405        H  0.87092707  0.46134876  0.71404763     0.14800
H406        H  0.92436217  0.46651457  0.72274144     0.13500
H407        H  0.89872797  0.57720137  0.66929588     0.11200
H408        H  0.86527886  0.57974320  0.74106290     0.13200
loop_ 
_geom_bond_atom_site_label_1 
_geom_bond_atom_site_label_2 
_geom_bond_distance 
_geom_bond_site_symmetry_2 
_ccdc_geom_bond_type 
N1            N2   1.323       .  A
N1            C5   1.347       .  A
N1           Cu9   2.084       .  S
N2            C3   1.344       .  A
N2           Cu8   2.073       .  S
C3            C4   1.384       .  A
C3            H6   1.082       .  S
C4            C5   1.384       .  A
C4          C382   1.479       .  S
C5            H7   1.082       .  S
Cu8          N11   2.073       .  S
Cu9          N19   2.084       .  S
Cu10         N12   2.076       .  S
Cu10         N18   2.077       .  S
N11          N12   1.322       .  A
N11          C15   1.345       .  A
N12          C13   1.346       .  A
C13          C14   1.386       .  A
C13          H16   1.082       .  S
C14          C15   1.382       .  A
C14         C398   1.477       .  S
C15          H17   1.082       .  S
N18          N19   1.323       .  A
N18          C22   1.344       .  A
N19          C20   1.348       .  A
C20          C21   1.388       .  A
C20          H23   1.081       .  S
C21          C22   1.382       .  A
C21         C364   1.480       .  S
C22          H24   1.082       .  S
N25          N26   1.323       .  A
N25          C29   1.348       .  A
N25         Cu33   2.088       .  S
N26          C27   1.345       .  A
N26         Cu32   2.073       .  S
C27          C28   1.384       .  A
C27          H30   1.082       .  S
C28          C29   1.385       .  A
C28         C346   1.479       .  S
C29          H31   1.082       .  S
Cu32         N35   2.073       .  S
Cu33         N43   2.089       .  S
Cu34         N36   2.080       .  S
Cu34         N42   2.080       .  S
N35          N36   1.322       .  A
N35          C39   1.345       .  A
N36          C37   1.346       .  A
C37          C38   1.384       .  A
C37          H40   1.082       .  S
C38          C39   1.386       .  A
C38         C400   1.481       .  S
C39          H41   1.081       .  S
N42          N43   1.323       .  A
N42          C46   1.347       .  A
N43          C44   1.347       .  A
C44          C45   1.385       .  A
C44          H47   1.082       .  S
C45          C46   1.386       .  A
C45         C326   1.482       .  S
C46          H48   1.082       .  S
N49          N50   1.323       .  A
N49          C53   1.348       .  A
N49         Cu57   2.087       .  S
N50          C51   1.344       .  A
N50         Cu56   2.073       .  S
C51          C52   1.384       .  A
C51          H54   1.082       .  S
C52          C53   1.384       .  A
C52         C380   1.478       .  S
C53          H55   1.082       .  S
Cu56         N59   2.074       .  S
Cu57         N67   2.087       .  S
Cu58         N60   2.074       .  S
Cu58         N66   2.074       .  S
N59          N60   1.321       .  A
N59          C63   1.346       .  A
N60          C61   1.345       .  A
C61          C62   1.382       .  A
C61          H64   1.082       .  S
C62          C63   1.387       .  A
C62         C308   1.478       .  S
C63          H65   1.082       .  S
N66          N67   1.322       .  A
N66          C70   1.345       .  A
N67          C68   1.348       .  A
C68          C69   1.386       .  A
C68          H71   1.082       .  S
C69          C70   1.386       .  A
C69         C292   1.483       .  S
C70          H72   1.081       .  S
N73          N74   1.322       .  A
N73          C77   1.349       .  A
N73         Cu81   2.085       .  S
N74          C75   1.342       .  A
N74         Cu80   2.068       .  S
C75          C76   1.383       .  A
C75          H78   1.082       .  S
C76          C77   1.386       .  A
C76         C344   1.479       .  S
C77          H79   1.082       .  S
Cu80         N83   2.068       .  S
Cu81         N91   2.086       .  S
Cu82         N84   2.078       .  S
Cu82         N90   2.079       .  S
N83          N84   1.321       .  A
N83          C87   1.344       .  A
N84          C85   1.347       .  A
C85          C86   1.388       .  A
C85          H88   1.082       .  S
C86          C87   1.381       .  A
C86         C310   1.477       .  S
C87          H89   1.082       .  S
N90          N91   1.324       .  A
N90          C94   1.345       .  A
N91          C92   1.347       .  A
C92          C93   1.387       .  A
C92          H95   1.081       .  S
C93          C94   1.382       .  A
C93         C274   1.479       .  S
C94          H96   1.082       .  S
N97          N98   1.320       .  A
N97         C101   1.352       .  A
N97        Cu105   2.086       .  S
N98          C99   1.338       .  A
N98        Cu104   2.054       .  S
C99         C100   1.377       .  A
C99         H102   1.082       .  S
C100        C101   1.391       .  A
C100        C236   1.474       .  S
C101        H103   1.082       .  S
Cu104       N107   2.055       .  S
Cu105       N115   2.089       .  S
Cu106       N108   2.096       .  S
Cu106       N114   2.099       .  S
N107        N108   1.321       .  A
N107        C111   1.340       .  A
N108        C109   1.352       .  A
C109        C110   1.391       .  A
C109        H112   1.082       .  S
C110        C111   1.377       .  A
C110        C256   1.477       .  S
C111        H113   1.082       .  S
N114        N115   1.327       .  A
N114        C118   1.349       .  A
N115        C116   1.346       .  A
C116        C117   1.381       .  A
C116        H119   1.082       .  S
C117        C118   1.386       .  A
C117        C290   1.479       .  S
C118        H120   1.082       .  S
N121        N122   1.322       .  A
N121        C125   1.351       .  A
N121       Cu129   2.089       .  S
N122        C123   1.341       .  A
N122       Cu128   2.066       .  S
C123        C124   1.384       .  A
C123        H126   1.081       .  S
C124        C125   1.388       .  A
C124        C220   1.484       .  S
C125        H127   1.082       .  S
Cu128       N131   2.066       .  S
Cu129       N139   2.091       .  S
Cu130       N132   2.080       .  S
Cu130       N138   2.081       .  S
N131        N132   1.320       .  A
N131        C135   1.343       .  A
N132        C133   1.348       .  A
C133        C134   1.387       .  A
C133        H136   1.082       .  S
C134        C135   1.387       .  A
C134        C254   1.485       .  S
C135        H137   1.081       .  S
N138        N139   1.325       .  A
N138        C142   1.344       .  A
N139        C140   1.348       .  A
C140        C141   1.385       .  A
C140        H143   1.082       .  S
C141        C142   1.386       .  A
C141        C362   1.483       .  S
C142        H144   1.081       .  S
N145        N146   1.320       .  A
N145        C149   1.348       .  A
N145       Cu153   2.077       .  S
N146        C147   1.341       .  A
N146       Cu152   2.062       .  S
C147        C148   1.385       .  A
C147        H150   1.082       .  S
C148        C149   1.386       .  A
C148        C238   1.480       .  S
C149        H151   1.082       .  S
Cu152       N155   2.062       .  S
Cu153       N163   2.079       .  S
Cu154       N156   2.091       .  S
Cu154       N162   2.092       .  S
N155        N156   1.322       .  A
N155        C159   1.341       .  A
N156        C157   1.351       .  A
C157        C158   1.390       .  A
C157        H160   1.082       .  S
C158        C159   1.378       .  A
C158        C200   1.476       .  S
C159        H161   1.082       .  S
N162        N163   1.325       .  A
N162        C166   1.347   1_556  A
N163        C164   1.345       .  A
C164        C165   1.381   1_556  A
C164        H167   1.082       .  S
C165        C166   1.388       .  A
C165        C272   1.481       .  S
C166        H168   1.081       .  S
N169        N170   1.322       .  A
N169        C173   1.350       .  A
N169       Cu177   2.085       .  S
N170        C171   1.341       .  A
N170       Cu176   2.065       .  S
C171        C172   1.379       .  A
C171        H174   1.082       .  S
C172        C173   1.389       .  A
C172        C218   1.476       .  S
C173        H175   1.082       .  S
Cu176       N179   2.065       .  S
Cu177       N187   2.086       .  S
Cu178       N180   2.087   1_556  S
Cu178       N186   2.088       .  S
N179        N180   1.321       .  A
N179        C183   1.343       .  A
N180        C181   1.348   1_554  A
C181        C182   1.386   1_556  A
C181        H184   1.082       .  S
C182        C183   1.385       .  A
C182        C202   1.482   1_554  S
C183        H185   1.081       .  S
N186        N187   1.325   1_556  A
N186        C190   1.348       .  A
N187        C188   1.346       .  A
C188        C189   1.382   1_554  A
C188        H191   1.082       .  S
C189        C190   1.386       .  A
C189        C328   1.481       .  S
C190        H192   1.082       .  S
C193        C194   1.403       .  A
C193        C198   1.408   1_554  A
C193        C201   1.486       .  S
C194        C195   1.397   1_554  A
C194        H203   1.083       .  S
C195        C196   1.406       .  A
C195        H204   1.083       .  S
C196        C197   1.404       .  A
C196        C199   1.487       .  S
C197        C198   1.403       .  A
C197        H205   1.083       .  S
C198        H206   1.082       .  S
C199        H207   1.086       .  S
C199        C200   1.344       .  D
C200        H208   1.086       .  S
C201        H209   1.086       .  S
C201        C202   1.347   1_554  D
C202        H210   1.085       .  S
C211        C212   1.403       .  A
C211        C216   1.409       .  A
C211        C219   1.487       .  S
C212        C213   1.393       .  A
C212        H221   1.084       .  S
C213        C214   1.406   1_545  A
C213        H222   1.082       .  S
C214        C215   1.405       .  A
C214        C217   1.489       .  S
C215        C216   1.405   1_565  A
C215        H223   1.083       .  S
C216        H224   1.081       .  S
C217        H225   1.086       .  S
C217        C218   1.346       .  D
C218        H226   1.086       .  S
C219        H227   1.086       .  S
C219        C220   1.347       .  D
C220        H228   1.084       .  S
C229        C230   1.401       .  A
C229        C234   1.409       .  A
C229        C237   1.484       .  S
C230        C231   1.393       .  A
C230        H239   1.084       .  S
C231        C232   1.406   1_565  A
C231        H240   1.083       .  S
C232        C233   1.404       .  A
C232        C235   1.487       .  S
C233        C234   1.404   1_545  A
C233        H241   1.083       .  S
C234        H242   1.082       .  S
C235        H243   1.086       .  S
C235        C236   1.344       .  D
C236        H244   1.087       .  S
C237        H245   1.086       .  S
C237        C238   1.345       .  D
C238        H246   1.085       .  S
C247        C248   1.404       .  A
C247        C252   1.405       .  A
C247        C255   1.489       .  S
C248        C249   1.404       .  A
C248        H257   1.083       .  S
C249        C250   1.410       .  A
C249        H258   1.081       .  S
C250        C251   1.404       .  A
C250        C253   1.491       .  S
C251        C252   1.397       .  A
C251        H259   1.083       .  S
C252        H260   1.083       .  S
C253        H261   1.085       .  S
C253        C254   1.348       .  D
C254        H262   1.084       .  S
C255        H263   1.087       .  S
C255        C256   1.344       .  D
C256        H264   1.086       .  S
C265        C266   1.404       .  A
C265        C270   1.407       .  A
C265        C273   1.488       .  S
C266        C267   1.401       .  A
C266        H275   1.083       .  S
C267        C268   1.409       .  A
C267        H276   1.081       .  S
C268        C269   1.404       .  A
C268        C271   1.490       .  S
C269        C270   1.398       .  A
C269        H277   1.083       .  S
C270        H278   1.082       .  S
C271        H279   1.086       .  S
C271        C272   1.346       .  D
C272        H280   1.084       .  S
C273        H281   1.086       .  S
C273        C274   1.346       .  D
C274        H282   1.085       .  S
C283        C284   1.404       .  A
C283        C288   1.408       .  A
C283        C291   1.488       .  S
C284        C285   1.399       .  A
C284        H293   1.083       .  S
C285        C286   1.405       .  A
C285        H294   1.083       .  S
C286        C287   1.404       .  A
C286        C289   1.486       .  S
C287        C288   1.402       .  A
C287        H295   1.083       .  S
C288        H296   1.082       .  S
C289        H297   1.087       .  S
C289        C290   1.345       .  D
C290        H298   1.086       .  S
C291        H299   1.086       .  S
C291        C292   1.347       .  D
C292        H300   1.085       .  S
C301        C302   1.403       .  A
C301        C306   1.407       .  A
C301        C309   1.485       .  S
C302        C303   1.399       .  A
C302        H311   1.083       .  S
C303        C304   1.407       .  A
C303        H312   1.082       .  S
C304        C305   1.403       .  A
C304        C307   1.485       .  S
C305        C306   1.398       .  A
C305        H313   1.083       .  S
C306        H314   1.082       .  S
C307        H315   1.086       .  S
C307        C308   1.345       .  D
C308        H316   1.086       .  S
C309        H317   1.086       .  S
C309        C310   1.344       .  D
C310        H318   1.086       .  S
C319        C320   1.403       .  A
C319        C324   1.407       .  A
C319        C327   1.488       .  S
C320        C321   1.400       .  A
C320        H329   1.083       .  S
C321        C322   1.407       .  A
C321        H330   1.082       .  S
C322        C323   1.404       .  A
C322        C325   1.488       .  S
C323        C324   1.402       .  A
C323        H331   1.083       .  S
C324        H332   1.082       .  S
C325        H333   1.086       .  S
C325        C326   1.347       .  D
C326        H334   1.086       .  S
C327        H335   1.087       .  S
C327        C328   1.346       .  D
C328        H336   1.086       .  S
C337        C338   1.404       .  A
C337        C342   1.405   1_655  A
C337        C345   1.484       .  S
C338        C339   1.400   1_655  A
C338        H347   1.083       .  S
C339        C340   1.406       .  A
C339        H348   1.083       .  S
C340        C341   1.404       .  A
C340        C343   1.484       .  S
C341        C342   1.400       .  A
C341        H349   1.083       .  S
C342        H350   1.083       .  S
C343        H351   1.087       .  S
C343        C344   1.346       .  D
C344        H352   1.086       .  S
C345        H353   1.087       .  S
C345        C346   1.345       .  D
C346        H354   1.086       .  S
C355        C356   1.405       .  A
C355        C360   1.407       .  A
C355        C363   1.491       .  S
C356        C357   1.402       .  A
C356        H365   1.084       .  S
C357        C358   1.408       .  A
C357        H366   1.081       .  S
C358        C359   1.403       .  A
C358        C361   1.489       .  S
C359        C360   1.397       .  A
C359        H367   1.084       .  S
C360        H368   1.081       .  S
C361        H369   1.085       .  S
C361        C362   1.348       .  D
C362        H370   1.085       .  S
C363        H371   1.086       .  S
C363        C364   1.347       .  D
C364        H372   1.085       .  S
C373        C374   1.404       .  A
C373        C378   1.406   1_455  A
C373        C381   1.484   1_455  S
C374        C375   1.400       .  A
C374        H383   1.083       .  S
C375        C376   1.406   1_556  A
C375        H384   1.083       .  S
C376        C377   1.403   1_455  A
C376        C379   1.483       .  S
C377        C378   1.399   1_554  A
C377        H385   1.083       .  S
C378        H386   1.082       .  S
C379        H387   1.087       .  S
C379        C380   1.344       .  D
C380        H388   1.086       .  S
C381        H389   1.087       .  S
C381        C382   1.345       .  D
C382        H390   1.086       .  S
C391        C392   1.404       .  A
C391        C396   1.408       .  A
C391        C399   1.487       .  S
C392        C393   1.398       .  A
C392        H401   1.084       .  S
C393        C394   1.405       .  A
C393        H402   1.082       .  S
C394        C395   1.403       .  A
C394        C397   1.484       .  S
C395        C396   1.401       .  A
C395        H403   1.084       .  S
C396        H404   1.081       .  S
C397        H405   1.087       .  S
C397        C398   1.345       .  D
C398        H406   1.086       .  S
C399        H407   1.086       .  S
C399        C400   1.347       .  D
C400        H408   1.085       .  S
