geometry optimzed in LAMMPS
_audit_creation_date              2020-12-01 
_audit_creation_method            'lammps2cif' 
_symmetry_space_group_name_H-M    'P1' 
_symmetry_Int_Tables_number       1 
_symmetry_cell_setting            triclinic 
loop_ 
_symmetry_equiv_pos_as_xyz 
  x,y,z 
_cell_length_a                    31.58416361 
_cell_length_b                    31.543518936819233 
_cell_length_c                    91.73809769727525 
_cell_angle_alpha                 90.01868871862247 
_cell_angle_beta                  89.96068402188756 
_cell_angle_gamma                 120.08125274524976 
loop_ 
_atom_site_label 
_atom_site_type_symbol 
_atom_site_fract_x 
_atom_site_fract_y 
_atom_site_fract_z 
_atom_site_charge 
O1          O  0.03495880  0.82693014  0.24881725    -0.72600
O2          O  0.03985003  0.70806780  0.25380667    -0.72600
O3          O  0.01928679  0.75088496  0.23145916    -0.72700
O4          O  0.05696723  0.78508302  0.27116241    -0.72700
O5          O  0.97847500  0.74586055  0.27794193    -0.72700
O6          O  0.94045665  0.71110280  0.23789653    -0.72700
O7          O  0.96124271  0.66924039  0.26045826    -0.72600
O8          O  0.95630518  0.78674880  0.25542650    -0.72700
Ni9        Ni  0.04062124  0.76914011  0.25108983     1.25400
Ni10       Ni  0.95633236  0.72679245  0.25818535     1.25400
C11         C  0.99449513  0.82593569  0.25129803     0.89600
C12         C  0.00086152  0.66906059  0.25780395     0.89500
C13         C  0.97398642  0.72568150  0.22815004     0.89500
C14         C  0.02411067  0.77163458  0.28102126     0.89700
O15         O  0.10828974  0.89832964  0.42081463    -0.72600
O16         O  0.23075041  0.89988462  0.41768486    -0.72600
O17         O  0.18188543  0.91555394  0.43936280    -0.72700
O18         O  0.15622110  0.88142049  0.39908158    -0.72700
O19         O  0.19377269  0.96064911  0.39305354    -0.72700
O20         O  0.21978874  0.99503964  0.43361610    -0.72700
O21         O  0.26790921  0.97918240  0.41176244    -0.72600
O22         O  0.14668884  0.97770201  0.41491529    -0.72700
Ni23       Ni  0.16797776  0.89590812  0.41942371     1.25400
Ni24       Ni  0.20843933  0.98094874  0.41310311     1.25400
C25         C  0.10784447  0.93816801  0.41845267     0.89600
C26         C  0.26946040  0.94020338  0.41438544     0.89500
C27         C  0.20465091  0.96065302  0.44310189     0.89500
C28         C  0.17007413  0.91524500  0.38950312     0.89700
O29         O  0.88082335  0.12964857  0.25047210    -0.72600
O30         O  0.88431620  0.25293946  0.25480093    -0.72600
O31         O  0.90030005  0.20579552  0.23264382    -0.72700
O32         O  0.86352943  0.17585750  0.27263189    -0.72700
O33         O  0.94219641  0.21160145  0.27906500    -0.72700
O34         O  0.97928491  0.24199434  0.23875305    -0.72700
O35         O  0.96306863  0.28831034  0.26110809    -0.72600
O36         O  0.95968403  0.16629725  0.25675340    -0.72700
Ni37       Ni  0.87938933  0.18982140  0.25243051     1.25400
Ni38       Ni  0.96385577  0.22839559  0.25916372     1.25400
C39         C  0.92004817  0.12815057  0.25287394     0.89600
C40         C  0.92467785  0.29089014  0.25852185     0.89500
C41         C  0.94554082  0.22840029  0.22911874     0.89500
C42         C  0.89660225  0.18808314  0.28236005     0.89700
O43         O  0.80778696  0.05536700  0.42171511    -0.72600
O44         O  0.68510196  0.05302134  0.41799272    -0.72600
O45         O  0.73326785  0.03776164  0.43994045    -0.72700
O46         O  0.76066465  0.07196833  0.39973227    -0.72700
O47         O  0.72385780  0.99279222  0.39368207    -0.72700
O48         O  0.69599560  0.95827494  0.43422515    -0.72700
O49         O  0.64861399  0.97375714  0.41207008    -0.72600
O50         O  0.77005662  0.97599870  0.41583269    -0.72700
Ni51       Ni  0.74797015  0.05740104  0.42003329     1.25400
Ni52       Ni  0.70823243  0.97238521  0.41371930     1.25400
C53         C  0.80862222  0.01568695  0.41943031     0.89600
C54         C  0.64668120  0.01259215  0.41459613     0.89500
C55         C  0.71062523  0.99268764  0.44369348     0.89500
C56         C  0.74759913  0.03823918  0.39015913     0.89700
O57         O  0.18891125  0.05979192  0.58458103    -0.72600
O58         O  0.30942851  0.05719397  0.58677633    -0.72600
O59         O  0.24398336  0.04233712  0.56552740    -0.72700
O60         O  0.25477968  0.07602846  0.60588770    -0.72700
O61         O  0.21275764  0.99679092  0.61188279    -0.72700
O62         O  0.20218018  0.96278296  0.57118172    -0.72700
O63         O  0.26700913  0.97787016  0.59266011    -0.72600
O64         O  0.14762633  0.98034350  0.59038143    -0.72700
Ni65       Ni  0.25085002  0.06171070  0.58550804     1.25400
Ni66       Ni  0.20596692  0.97662410  0.59175757     1.25400
C67         C  0.14853652  0.02012051  0.58706776     0.89600
C68         C  0.30758773  0.01666641  0.58988602     0.89500
C69         C  0.22132913  0.99730795  0.56172687     0.89500
C70         C  0.23498125  0.04220024  0.61547176     0.89700
O71         O  0.18713523  0.12848708  0.75466969    -0.72600
O72         O  0.30989875  0.25007337  0.75174412    -0.72600
O73         O  0.24459071  0.20170592  0.77329827    -0.72700
O74         O  0.25303413  0.17568769  0.73307315    -0.72700
O75         O  0.21272234  0.21430972  0.72687898    -0.72700
O76         O  0.20458590  0.24100649  0.76751312    -0.72700
O77         O  0.26907220  0.28828714  0.74567906    -0.72600
O78         O  0.14771723  0.16822107  0.74870541    -0.72700
Ni79       Ni  0.25016782  0.18762340  0.75338182     1.25400
Ni80       Ni  0.20716525  0.22939708  0.74695379     1.25400
C81         C  0.14731675  0.12886271  0.75223964     0.89600
C82         C  0.30916693  0.28923830  0.74844761     0.89500
C83         C  0.22324757  0.22535152  0.77702766     0.89500
C84         C  0.23376632  0.18992740  0.72341274     0.89700
O85         O  0.73132175  0.90186304  0.58524141    -0.72600
O86         O  0.60886321  0.90066073  0.58746886    -0.72600
O87         O  0.67483670  0.91715792  0.56620511    -0.72700
O88         O  0.66496338  0.88397246  0.60657620    -0.72700
O89         O  0.70516598  0.96330222  0.61251843    -0.72700
O90         O  0.71483238  0.99679068  0.57180432    -0.72700
O91         O  0.64950308  0.98008439  0.59329860    -0.72600
O92         O  0.77075825  0.98136835  0.59099503    -0.72700
Ni93       Ni  0.66848321  0.89802835  0.58619245     1.25400
Ni94       Ni  0.71142181  0.98320483  0.59238567     1.25400
C95         C  0.77108154  0.94220320  0.58767848     0.89600
C96         C  0.60950475  0.94064607  0.59054301     0.89500
C97         C  0.69648642  0.96214592  0.56237501     0.89500
C98         C  0.68399120  0.91795394  0.61613490     0.89700
O99         O  0.72843416  0.83026324  0.75555407    -0.72600
O100        O  0.60431080  0.71023046  0.75261803    -0.72600
O101        O  0.67019011  0.75722096  0.77411510    -0.72700
O102        O  0.66210388  0.78440235  0.73399460    -0.72700
O103        O  0.70102171  0.74450070  0.72762619    -0.72700
O104        O  0.70879208  0.71667290  0.76810142    -0.72700
O105        O  0.64372606  0.67073524  0.74635438    -0.72600
O106        O  0.76650019  0.78933549  0.74939256    -0.72700
Ni107      Ni  0.66480196  0.77194655  0.75426548     1.25400
Ni108      Ni  0.70631269  0.72882599  0.74762170     1.25400
C109        C  0.76777817  0.82905910  0.75302350     0.89600
C110        C  0.60410118  0.67066289  0.74921658     0.89500
C111        C  0.69080031  0.73275731  0.77769861     0.89500
C112        C  0.68078646  0.76969875  0.72426809     0.89700
O113        O  0.80700171  0.75038336  0.91760548    -0.72600
O114        O  0.68300469  0.63269382  0.92309056    -0.72600
O115        O  0.73041054  0.69209079  0.90024421    -0.72700
O116        O  0.76048750  0.69081211  0.94049144    -0.72700
O117        O  0.72617456  0.73587132  0.94594532    -0.72700
O118        O  0.69565569  0.73696912  0.90540453    -0.72700
O119        O  0.64892727  0.67805881  0.92842350    -0.72600
O120        O  0.77187484  0.79482076  0.92291045    -0.72700
Ni121      Ni  0.74639833  0.68979527  0.92019179     1.25400
Ni122      Ni  0.70934514  0.73796078  0.92588389     1.25400
C123        C  0.80938289  0.79184231  0.91931470     0.89600
C124        C  0.64560070  0.63637784  0.92647794     0.89500
C125        C  0.70860673  0.71499895  0.89621126     0.89500
C126        C  0.74906034  0.71367732  0.94975977     0.89700
O127        O  0.89146515  0.75841881  0.08865079    -0.72600
O128        O  0.87796645  0.63074832  0.08399214    -0.72600
O129        O  0.90089791  0.69482570  0.10627931    -0.72700
O130        O  0.86713784  0.69402753  0.06633358    -0.72700
O131        O  0.94590783  0.72929578  0.06001224    -0.72700
O132        O  0.97997730  0.72978350  0.10033579    -0.72700
O133        O  0.95687398  0.66645568  0.07780636    -0.72600
O134        O  0.97034767  0.79291707  0.08253006    -0.72700
Ni135      Ni  0.88151031  0.69319801  0.08651026     1.25400
Ni136      Ni  0.96608210  0.73080273  0.07992735     1.25400
C137        C  0.93340528  0.79650483  0.08640227     0.89600
C138        C  0.91571936  0.62801800  0.08032045     0.89500
C139        C  0.94568335  0.71246051  0.10987643     0.89500
C140        C  0.90078099  0.71198777  0.05666752     0.89700
O141        O  0.11251662  0.20570405  0.91708277    -0.72600
O142        O  0.23122499  0.32919948  0.92216107    -0.72600
O143        O  0.18735738  0.26681221  0.89957664    -0.72700
O144        O  0.15530030  0.26818439  0.93970261    -0.72700
O145        O  0.19484250  0.22863121  0.94572538    -0.72700
O146        O  0.22727248  0.22734459  0.90527355    -0.72700
O147        O  0.27045881  0.28919380  0.92803712    -0.72600
O148        O  0.15284813  0.16678396  0.92296160    -0.72700
Ni149      Ni  0.17023963  0.26898101  0.91944538     1.25400
Ni150      Ni  0.21286043  0.22667366  0.92573335     1.25400
C151        C  0.11364736  0.16609125  0.91911928     0.89600
C152        C  0.27038160  0.32911953  0.92577559     0.89500
C153        C  0.21190289  0.24641700  0.89581414     0.89500
C154        C  0.16908311  0.24811676  0.94925062     0.89700
O155        O  0.04014677  0.21323946  0.08884252    -0.72600
O156        O  0.02962925  0.32885834  0.08353661    -0.72600
O157        O  0.01962993  0.26988039  0.10631523    -0.72700
O158        O  0.05165335  0.27263656  0.06604020    -0.72700
O159        O  0.97252625  0.22556168  0.06055685    -0.72700
O160        O  0.94015471  0.22306706  0.10120106    -0.72700
O161        O  0.95043239  0.28145138  0.07818838    -0.72600
O162        O  0.96074584  0.16693514  0.08355228    -0.72700
Ni163      Ni  0.03811340  0.27292762  0.08634892     1.25400
Ni164      Ni  0.95313028  0.22267086  0.08066126     1.25400
C165        C  0.00179722  0.17113354  0.08708168     0.89600
C166        C  0.98790140  0.32377164  0.08019009     0.89500
C167        C  0.97496945  0.24581997  0.11039279     0.89500
C168        C  0.01769485  0.24888987  0.05675002     0.89700
C169        C  0.11560928  0.24593707  0.98995245     0.18800
C170        C  0.07543424  0.20269317  0.99520184    -0.10300
C171        C  0.05278714  0.20297973  0.00831625    -0.11100
C172        C  0.07005173  0.24656907  0.01625604     0.20400
C173        C  0.11034287  0.28975284  0.01103377    -0.13200
C174        C  0.13298436  0.28946610  0.99792622    -0.11400
C175        C  0.04750369  0.24679752  0.02995116     0.01400
C176        C  0.03144139  0.24750438  0.04186155    -0.31500
C177        C  0.13773833  0.24609711  0.97613786     0.02700
C178        C  0.15401034  0.24677753  0.96414826    -0.33100
H179        H  0.06145843  0.16881682  0.98912159     0.13800
H180        H  0.02189342  0.16928980  0.01225682     0.13600
H181        H  0.12427342  0.32365792  0.01709734     0.13500
H182        H  0.16382281  0.32318234  0.99397766     0.12500
C183        C  0.95840822  0.43571120  0.07866410     0.18800
C184        C  0.93327448  0.44052931  0.06675759    -0.10300
C185        C  0.91908644  0.47610859  0.06694358    -0.11100
C186        C  0.92977534  0.50693774  0.07905699     0.20400
C187        C  0.95457148  0.50183312  0.09099408    -0.13200
C188        C  0.96876162  0.46632423  0.09080549    -0.11400
C189        C  0.91792111  0.54559346  0.07902451     0.01400
C190        C  0.91316818  0.58127405  0.07938166    -0.31500
C191        C  0.97252503  0.39867316  0.07860893     0.02700
C192        C  0.98195461  0.36599371  0.07903378    -0.33100
H193        H  0.92480365  0.41693675  0.05734071     0.13800
H194        H  0.90020910  0.47985675  0.05760211     0.13600
H195        H  0.96333668  0.52560347  0.10038213     0.13500
H196        H  0.98792505  0.46283699  0.10011448     0.12500
C197        C  0.96265504  0.93751357  0.09019012     0.18800
C198        C  0.00993438  0.97417074  0.08621789    -0.10300
C199        C  0.02248974  0.02351397  0.08646777    -0.11100
C200        C  0.98784159  0.03645179  0.09071908     0.20400
C201        C  0.94080782  0.99983352  0.09488620    -0.13200
C202        C  0.92825523  0.95053258  0.09462930    -0.11400
C203        C  0.99925815  0.08677993  0.09009922     0.01400
C204        C  0.00392812  0.12704932  0.08902344    -0.31500
C205        C  0.94921798  0.88661668  0.08935288     0.02700
C206        C  0.93987789  0.84465997  0.08822468    -0.33100
H207        H  0.03685596  0.96455756  0.08275038     0.13800
H208        H  0.05887180  0.05142763  0.08314770     0.13600
H209        H  0.91360996  0.00934658  0.09811895     0.13500
H210        H  0.89160992  0.92258705  0.09770772     0.12500
C211        C  0.40736824  0.44754763  0.92781026     0.18800
C212        C  0.44203463  0.44199459  0.91976668    -0.10300
C213        C  0.49134195  0.47858310  0.92003910    -0.11100
C214        C  0.50631246  0.52093767  0.92838927     0.20400
C215        C  0.47167405  0.52651822  0.93645085    -0.13200
C216        C  0.42230765  0.48988192  0.93618018    -0.11400
C217        C  0.55684724  0.55932752  0.92829855     0.01400
C218        C  0.59831439  0.59317019  0.92776170    -0.31500
C219        C  0.35679418  0.40925591  0.92757676     0.02700
C220        C  0.31591432  0.37439852  0.92698670    -0.33100
H221        H  0.43092684  0.40935245  0.91327566     0.13800
H222        H  0.51769211  0.47396071  0.91370627     0.13600
H223        H  0.48279658  0.55926167  0.94289059     0.13500
H224        H  0.39589748  0.49454710  0.94246349     0.12500
C225        C  0.99975423  0.02697472  0.91596710     0.18800
C226        C  0.98387432  0.00133397  0.92914592    -0.10300
C227        C  0.94841819  0.95165657  0.92915441    -0.11100
C228        C  0.92873127  0.92726910  0.91597535     0.20400
C229        C  0.94479285  0.95277550  0.90276026    -0.13200
C230        C  0.98037238  0.00257039  0.90275116    -0.11400
C231        C  0.89002696  0.87696142  0.91620545     0.01400
C232        C  0.85482024  0.83650334  0.91724822    -0.31500
C233        C  0.03695157  0.07789024  0.91613039     0.02700
C234        C  0.07036094  0.11940919  0.91712415    -0.33100
H235        H  0.99883327  0.01978253  0.93942053     0.13800
H236        H  0.93600671  0.93239878  0.93943068     0.13600
H237        H  0.92951642  0.93432434  0.89250548     0.13500
H238        H  0.99262864  0.02200042  0.89249361     0.12500
C239        C  0.84795458  0.71480110  0.01644615     0.18800
C240        C  0.79781687  0.68242411  0.01435325    -0.10300
C241        C  0.77529211  0.68324466  0.00130702    -0.11100
C242        C  0.80274700  0.71653903  0.99029253     0.20400
C243        C  0.85284602  0.74905552  0.99240735    -0.13200
C244        C  0.87537550  0.74823387  0.00545608    -0.11400
C245        C  0.78014891  0.71616046  0.97660777     0.01400
C246        C  0.76378004  0.71526624  0.96465460    -0.31500
C247        C  0.87074845  0.71426755  0.03000190     0.02700
C248        C  0.88692076  0.71343429  0.04184733    -0.33100
H249        H  0.77618601  0.65655342  0.02279500     0.13800
H250        H  0.73660208  0.65776791  0.99977869     0.13600
H251        H  0.87450709  0.77480177  0.98394426     0.13500
H252        H  0.91410016  0.77358452  0.00696553     0.12500
C253        C  0.69417589  0.71673075  0.85220445     0.18800
C254        C  0.67579376  0.74292102  0.84481501    -0.10300
C255        C  0.67566196  0.74366925  0.82956942    -0.11100
C256        C  0.69394208  0.71827169  0.82164387     0.20400
C257        C  0.71215346  0.69192835  0.82903316    -0.13200
C258        C  0.71227642  0.69117353  0.84428070    -0.11400
C259        C  0.69440044  0.71992495  0.80595757     0.01400
C260        C  0.69374388  0.72389923  0.79289904    -0.31500
C261        C  0.69565139  0.71685825  0.86788817     0.02700
C262        C  0.69959805  0.71649831  0.88095188    -0.33100
H263        H  0.66186760  0.76294450  0.85082399     0.13800
H264        H  0.66155642  0.76423046  0.82396249     0.13600
H265        H  0.72643983  0.67223477  0.82302556     0.13500
H266        H  0.72673552  0.67093376  0.84988904     0.12500
C267        C  0.68102702  0.86686133  0.65714863     0.18800
C268        C  0.72510957  0.87701826  0.66377983    -0.10300
C269        C  0.72464596  0.85444629  0.67696626    -0.11100
C270        C  0.68008767  0.82141871  0.68359514     0.20400
C271        C  0.63598481  0.81135189  0.67698921    -0.13200
C272        C  0.63644791  0.83393080  0.66379534    -0.11400
C273        C  0.67975011  0.79920870  0.69738530     0.01400
C274        C  0.67999523  0.78339685  0.70935939    -0.31500
C275        C  0.68159032  0.88861169  0.64325177     0.02700
C276        C  0.68250392  0.90422065  0.63115976    -0.33100
H277        H  0.75981336  0.90217962  0.65872225     0.13800
H278        H  0.75898761  0.86277275  0.68199319     0.13600
H279        H  0.60128543  0.78611294  0.68203851     0.13500
H280        H  0.60211207  0.82554221  0.65874925     0.12500
C281        C  0.22358862  0.24070667  0.85173754     0.18800
C282        C  0.18082308  0.20726241  0.84437537    -0.10300
C283        C  0.17953989  0.20650683  0.82912287    -0.11100
C284        C  0.22097355  0.23930113  0.82111910     0.20400
C285        C  0.26383045  0.27262205  0.82847349    -0.13200
C286        C  0.26511186  0.27338744  0.84373925    -0.11400
C287        C  0.22001698  0.23755682  0.80539748     0.01400
C288        C  0.22034366  0.23378592  0.79230192    -0.31500
C289        C  0.22399940  0.24250175  0.86745910     0.02700
C290        C  0.22094750  0.24414218  0.88054950    -0.33100
H291        H  0.14841037  0.18193292  0.85042699     0.13800
H292        H  0.14630128  0.18034313  0.82357828     0.13600
H293        H  0.29622023  0.29793342  0.82241408     0.13500
H294        H  0.29832579  0.29954147  0.84929074     0.12500
C295        C  0.90753502  0.94384549  0.75509140     0.18800
C296        C  0.94015188  0.94002919  0.76463757    -0.10300
C297        C  0.99005414  0.97526913  0.76437544    -0.11100
C298        C  0.00765481  0.01446624  0.75452657     0.20400
C299        C  0.97497418  0.01839313  0.74504741    -0.13200
C300        C  0.92512802  0.98319697  0.74531068    -0.11400
C301        C  0.05893706  0.05118995  0.75420680     0.01400
C302        C  0.10063943  0.08468922  0.75352206    -0.31500
C303        C  0.85652195  0.90634465  0.75489102     0.02700
C304        C  0.81485031  0.87276529  0.75426938    -0.33100
H305        H  0.92706649  0.90962204  0.77220524     0.13800
H306        H  0.01484654  0.97188189  0.77179341     0.13600
H307        H  0.98806513  0.04861802  0.73741349     0.13500
H308        H  0.90042037  0.98646175  0.73782734     0.12500
C309        C  0.48929302  0.53108065  0.74860319     0.18800
C310        C  0.46373708  0.50753757  0.76133882    -0.10300
C311        C  0.43048231  0.45703458  0.76126822    -0.11100
C312        C  0.42268619  0.42965842  0.74848713     0.20400
C313        C  0.44823149  0.45321414  0.73575775    -0.13200
C314        C  0.48146926  0.50370123  0.73582800    -0.11400
C315        C  0.38683434  0.37799653  0.74827701     0.01400
C316        C  0.35363467  0.33600731  0.74820932    -0.31500
C317        C  0.52541582  0.58265705  0.74879311     0.02700
C318        C  0.55906096  0.62441920  0.74891803    -0.33100
H319        H  0.46968831  0.52813610  0.77131812     0.13800
H320        H  0.41073153  0.43936471  0.77116663     0.13600
H321        H  0.44234678  0.43262524  0.72578598     0.13500
H322        H  0.50125236  0.52133836  0.72593580     0.12500
C323        C  0.01071142  0.99888132  0.58552166     0.18800
C324        C  0.98142067  0.97485121  0.57339270    -0.10300
C325        C  0.93140126  0.95932638  0.57358995    -0.11100
C326        C  0.91040434  0.96758164  0.58594249     0.20400
C327        C  0.93975768  0.99181830  0.59803536    -0.13200
C328        C  0.98973577  0.00733988  0.59783703    -0.11400
C329        C  0.85920823  0.95281517  0.58611597     0.01400
C330        C  0.81759107  0.94460399  0.58663914    -0.31500
C331        C  0.06156087  0.01231797  0.58564744     0.02700
C332        C  0.10272735  0.01922719  0.58610641    -0.33100
H333        H  0.99715515  0.96778548  0.56384926     0.13800
H334        H  0.90915157  0.94089810  0.56414110     0.13600
H335        H  0.92400066  0.99867542  0.60761267     0.13500
H336        H  0.01190834  0.02555105  0.60731856     0.12500
C337        C  0.42267291  0.99232486  0.59003468     0.18800
C338        C  0.44353828  0.98966446  0.60323167    -0.10300
C339        C  0.47872543  0.97507856  0.60337550    -0.11100
C340        C  0.49317017  0.96287270  0.59032420     0.20400
C341        C  0.47232034  0.96553466  0.57711470    -0.13200
C342        C  0.43710311  0.98012035  0.57697109    -0.11400
C343        C  0.53081143  0.94968245  0.59046332     0.01400
C344        C  0.56491118  0.94244436  0.59059980    -0.31500
C345        C  0.38520296  0.00575305  0.58997903     0.02700
C346        C  0.35149387  0.01359595  0.59000341    -0.33100
H347        H  0.43251837  0.99873339  0.61341225     0.13800
H348        H  0.49477263  0.97349495  0.61363901     0.13600
H349        H  0.48340622  0.95651116  0.56693152     0.13500
H350        H  0.42106514  0.98175935  0.56670513     0.12500
C351        C  0.23790107  0.09384341  0.65643431     0.18800
C352        C  0.27799735  0.13915590  0.66044426    -0.10300
C353        C  0.27730153  0.16142191  0.67359476    -0.11100
C354        C  0.23642759  0.13860604  0.68280553     0.20400
C355        C  0.19647038  0.09317570  0.67882684    -0.13200
C356        C  0.19716987  0.07092251  0.66568474    -0.11400
C357        C  0.23583964  0.16090000  0.69651328     0.01400
C358        C  0.23492246  0.17660128  0.70846350    -0.31500
C359        C  0.23765087  0.07202044  0.64256292     0.02700
C360        C  0.23671158  0.05621728  0.63048902    -0.33100
H361        H  0.30962380  0.15740918  0.65336457     0.13800
H362        H  0.30855664  0.19638579  0.67656648     0.13600
H363        H  0.16477035  0.07498808  0.68587515     0.13500
H364        H  0.16583797  0.03604142  0.66269563     0.12500
C365        C  0.70131749  0.97808917  0.51830387     0.18800
C366        C  0.73559407  0.97119544  0.51051885    -0.10300
C367        C  0.73460633  0.97020239  0.49527293    -0.11100
C368        C  0.69922862  0.97592573  0.48772680     0.20400
C369        C  0.66493312  0.98280814  0.49550815    -0.13200
C370        C  0.66591611  0.98379361  0.51076204    -0.11400
C371        C  0.69950588  0.97684681  0.47202543     0.01400
C372        C  0.70251836  0.98126940  0.45894452    -0.31500
C373        C  0.70139162  0.97739506  0.53400580     0.02700
C374        C  0.70019520  0.97321619  0.54709279    -0.33100
H375        H  0.76296074  0.96646364  0.51623140     0.13800
H376        H  0.76150695  0.96517617  0.48937519     0.13600
H377        H  0.63761297  0.98759222  0.48979145     0.13500
H378        H  0.63905848  0.98886541  0.51666340     0.12500
C379        C  0.79918258  0.09029164  0.34944188     0.18800
C380        C  0.84527980  0.09722526  0.34568585    -0.10300
C381        C  0.86728000  0.11977367  0.33247832    -0.11100
C382        C  0.84339720  0.13567405  0.32295591     0.20400
C383        C  0.79730814  0.12876703  0.32671427    -0.13200
C384        C  0.77530489  0.10621581  0.33992424    -0.11400
C385        C  0.86537751  0.15765327  0.30915119     0.01400
C386        C  0.88158170  0.17359812  0.29719627    -0.31500
C387        C  0.77725428  0.06828036  0.36324765     0.02700
C388        C  0.76149027  0.05239001  0.37524088    -0.33100
H389        H  0.86424076  0.08531288  0.35297752     0.13800
H390        H  0.90280152  0.12468578  0.32968006     0.13600
H391        H  0.77835660  0.14068897  0.31942293     0.13500
H392        H  0.73978760  0.10130913  0.34272557     0.12500
C393        C  0.96359274  0.24264409  0.18514498     0.18800
C394        C  0.94566016  0.19874215  0.17734090    -0.10300
C395        C  0.94443793  0.19900014  0.16209774    -0.11100
C396        C  0.96100969  0.24315754  0.15454767     0.20400
C397        C  0.97912999  0.28713201  0.16234157    -0.13200
C398        C  0.98033512  0.28687054  0.17760437    -0.11400
C399        C  0.96116144  0.24345321  0.13882522     0.01400
C400        C  0.96460666  0.24392227  0.12571070    -0.31500
C401        C  0.96277896  0.24169820  0.20086224     0.02700
C402        C  0.95789353  0.23772830  0.21393106    -0.33100
H403        H  0.93239766  0.16428237  0.18304337     0.13800
H404        H  0.93067958  0.16482777  0.15620648     0.13600
H405        H  0.99237930  0.32156597  0.15662608     0.13500
H406        H  0.99406720  0.32101804  0.18350974     0.12500
C407        C  0.21589199  0.97992648  0.51767485     0.18800
C408        C  0.25251431  0.97618375  0.51014586    -0.10300
C409        C  0.25288130  0.97598071  0.49488792    -0.11100
C410        C  0.21673113  0.97969447  0.48708915     0.20400
C411        C  0.18021762  0.98359435  0.49462123    -0.13200
C412        C  0.17984472  0.98378875  0.50986991    -0.11400
C413        C  0.21583009  0.97745776  0.47140027     0.01400
C414        C  0.21251741  0.97224919  0.45834526    -0.31500
C415        C  0.21614300  0.98146218  0.53337433     0.02700
C416        C  0.21745429  0.98604094  0.54645132    -0.33100
H417        H  0.28074136  0.97347301  0.51606020     0.13800
H418        H  0.28114658  0.97268819  0.48918323     0.13600
H419        H  0.15193248  0.98622718  0.48871203     0.13500
H420        H  0.15151950  0.98699526  0.51556788     0.12500
C421        C  0.40844121  0.96318073  0.41374012     0.18800
C422        C  0.44370281  0.00712184  0.42022151    -0.10300
C423        C  0.49312373  0.02020899  0.42010546    -0.11100
C424        C  0.50763533  0.98948155  0.41348285     0.20400
C425        C  0.47237118  0.94552673  0.40700823    -0.13200
C426        C  0.42294279  0.93243773  0.40712442    -0.11400
C427        C  0.55837757  0.00223777  0.41360627     0.01400
C428        C  0.59980369  0.00969213  0.41390021    -0.31500
C429        C  0.35765420  0.95025945  0.41374720     0.02700
C430        C  0.31623267  0.94283163  0.41390095    -0.33100
H431        H  0.43298668  0.03125373  0.42535490     0.13800
H432        H  0.51994791  0.05416637  0.42520313     0.13600
H433        H  0.48307299  0.92134249  0.40190824     0.13500
H434        H  0.39610201  0.89842619  0.40205994     0.12500
C435        C  0.99384137  0.96292347  0.42120486     0.18800
C436        C  0.00269408  0.00554458  0.41383136    -0.10300
C437        C  0.96805945  0.02079552  0.41420967    -0.11100
C438        C  0.92441254  0.99358649  0.42199802     0.20400
C439        C  0.91570816  0.95117246  0.42947855    -0.13200
C440        C  0.95037048  0.93590410  0.42909857    -0.11400
C441        C  0.88734901  0.00745712  0.42168495     0.01400
C442        C  0.85334336  0.01467039  0.42091440    -0.31500
C443        C  0.02985475  0.94766119  0.42069624     0.02700
C444        C  0.06333233  0.93964614  0.41986008    -0.33100
H445        H  0.03623648  0.02680894  0.40772972     0.13800
H446        H  0.97507718  0.05345652  0.40830664     0.13600
H447        H  0.88194448  0.92966529  0.43545914     0.13500
H448        H  0.94316886  0.90297787  0.43487839     0.12500
C449        C  0.97901624  0.53084542  0.26028098     0.18800
C450        C  0.01456420  0.51669482  0.26048066    -0.10300
C451        C  0.00042134  0.46691550  0.26056328    -0.11100
C452        C  0.95066428  0.43097807  0.26044308     0.20400
C453        C  0.91513087  0.44514573  0.26035731    -0.13200
C454        C  0.92926838  0.49490497  0.26027937    -0.11400
C455        C  0.93644319  0.37977506  0.26011336     0.01400
C456        C  0.92808823  0.33800879  0.25954091    -0.31500
C457        C  0.99307311  0.58198545  0.25977303     0.02700
C458        C  0.00024370  0.62330952  0.25903087    -0.33100
H459        H  0.05311383  0.54405989  0.26046317     0.13800
H460        H  0.02826000  0.45644387  0.26060997     0.13600
H461        H  0.87657946  0.41779043  0.26024283     0.13500
H462        H  0.90141910  0.50536191  0.26010512     0.12500
C463        C  0.94138544  0.01182205  0.24946968     0.18800
C464        C  0.90743317  0.96374703  0.24534533    -0.10300
C465        C  0.92132052  0.92798884  0.24490299    -0.11100
C466        C  0.96923545  0.94014103  0.24856594     0.20400
C467        C  0.00321184  0.98827191  0.25260370    -0.13200
C468        C  0.98934313  0.02398931  0.25304348    -0.11400
C469        C  0.98279387  0.90276088  0.24875629     0.01400
C470        C  0.99101413  0.86935199  0.24954414    -0.31500
C471        C  0.92751379  0.04892670  0.25017747     0.02700
C472        C  0.92061497  0.08315503  0.25118014    -0.33100
H473        H  0.87024557  0.95385832  0.24256549     0.13800
H474        H  0.89463652  0.89082691  0.24184123     0.13600
H475        H  0.04025672  0.99808364  0.25553768     0.13500
H476        H  0.01591330  0.06101469  0.25625661     0.12500
C477        C  0.12160691  0.86631672  0.34834557     0.18800
C478        C  0.13331082  0.83407390  0.34129662    -0.10300
C479        C  0.11150069  0.81300860  0.32793387    -0.11100
C480        C  0.07775309  0.82393435  0.32156697     0.20400
C481        C  0.06623149  0.85634690  0.32858354    -0.13200
C482        C  0.08803602  0.87740836  0.34194121    -0.11400
C483        C  0.05578474  0.80276753  0.30770853     0.01400
C484        C  0.03939618  0.78687472  0.29577806    -0.31500
C485        C  0.14251409  0.88655471  0.36238513     0.02700
C486        C  0.15722403  0.90140116  0.37452574    -0.33100
H487        H  0.15902159  0.82502717  0.34616242     0.13800
H488        H  0.12089168  0.78817993  0.32258217     0.13600
H489        H  0.04039415  0.86526665  0.32374534     0.13500
H490        H  0.07850816  0.90209840  0.34731227     0.12500
C491        C  0.95897861  0.71074386  0.15380818     0.18800
C492        C  0.98498794  0.69288645  0.16155658    -0.10300
C493        C  0.98335122  0.69153086  0.17680639    -0.11100
C494        C  0.95557707  0.70786557  0.18435512     0.20400
C495        C  0.92928519  0.72534391  0.17659160    -0.13200
C496        C  0.93092590  0.72670460  0.16136095    -0.11400
C497        C  0.95643833  0.70945364  0.20004001     0.01400
C498        C  0.96133059  0.71449934  0.21307043    -0.31500
C499        C  0.96016083  0.71217342  0.13812312     0.02700
C500        C  0.95684531  0.71299284  0.12504737    -0.33100
H501        H  0.00664503  0.68028663  0.15583123     0.13800
H502        H  0.00412667  0.67828242  0.18270789     0.13600
H503        H  0.90799751  0.73840467  0.18230786     0.13500
H504        H  0.91052070  0.74041868  0.15547446     0.12500
loop_ 
_geom_bond_atom_site_label_1 
_geom_bond_atom_site_label_2 
_geom_bond_distance 
_geom_bond_site_symmetry_2 
_ccdc_geom_bond_type 
O1           Ni9   1.930       .  S
O1           C11   1.283   1_455  A
O2           Ni9   1.931       .  S
O2           C12   1.283       .  A
O3           Ni9   1.908       .  S
O3           C13   1.277   1_455  A
O4           Ni9   1.911       .  S
O4           C14   1.278       .  A
O5          Ni10   1.927       .  S
O5           C14   1.282   1_655  A
O6          Ni10   1.927       .  S
O6           C13   1.282       .  A
O7          Ni10   1.909       .  S
O7           C12   1.277   1_655  A
O8          Ni10   1.909       .  S
O8           C11   1.277       .  A
Ni9         Ni10   2.393   1_455  S
C11         C470   1.437       .  S
C12         C458   1.438       .  S
C13         C498   1.434       .  S
C14         C484   1.437       .  S
O15         Ni23   1.929       .  S
O15          C25   1.282       .  A
O16         Ni23   1.929       .  S
O16          C26   1.283       .  A
O17         Ni23   1.911       .  S
O17          C27   1.278       .  A
O18         Ni23   1.913       .  S
O18          C28   1.278       .  A
O19         Ni24   1.926       .  S
O19          C28   1.282       .  A
O20         Ni24   1.926       .  S
O20          C27   1.282       .  A
O21         Ni24   1.911       .  S
O21          C26   1.278       .  A
O22         Ni24   1.908       .  S
O22          C25   1.277       .  A
Ni23        Ni24   2.393       .  S
C25         C444   1.436       .  S
C26         C430   1.438       .  S
C27         C414   1.435       .  S
C28         C486   1.437       .  S
O29         Ni37   1.929       .  S
O29          C39   1.282       .  A
O30         Ni37   1.930       .  S
O30          C40   1.283       .  A
O31         Ni37   1.911       .  S
O31          C41   1.278       .  A
O32         Ni37   1.912       .  S
O32          C42   1.278       .  A
O33         Ni38   1.928       .  S
O33          C42   1.282       .  A
O34         Ni38   1.928       .  S
O34          C41   1.282       .  A
O35         Ni38   1.911       .  S
O35          C40   1.278       .  A
O36         Ni38   1.909       .  S
O36          C39   1.277       .  A
Ni37        Ni38   2.393       .  S
C39         C472   1.437       .  S
C40         C456   1.438       .  S
C41         C402   1.437       .  S
C42         C386   1.438       .  S
O43         Ni51   1.929       .  S
O43          C53   1.282       .  A
O44         Ni51   1.929       .  S
O44          C54   1.283       .  A
O45         Ni51   1.909       .  S
O45          C55   1.278   1_545  A
O46         Ni51   1.912       .  S
O46          C56   1.278       .  A
O47         Ni52   1.928       .  S
O47          C56   1.282   1_565  A
O48         Ni52   1.927       .  S
O48          C55   1.282       .  A
O49         Ni52   1.911       .  S
O49          C54   1.278   1_565  A
O50         Ni52   1.908       .  S
O50          C53   1.277   1_565  A
Ni51        Ni52   2.393   1_545  S
C53         C442   1.435       .  S
C54         C428   1.438       .  S
C55         C372   1.435       .  S
C56         C388   1.438       .  S
O57         Ni65   1.929       .  S
O57          C67   1.282       .  A
O58         Ni65   1.929       .  S
O58          C68   1.282       .  A
O59         Ni65   1.910       .  S
O59          C69   1.278   1_545  A
O60         Ni65   1.913       .  S
O60          C70   1.278       .  A
O61         Ni66   1.929       .  S
O61          C70   1.283   1_565  A
O62         Ni66   1.928       .  S
O62          C69   1.282       .  A
O63         Ni66   1.910       .  S
O63          C68   1.278   1_565  A
O64         Ni66   1.908       .  S
O64          C67   1.277   1_565  A
Ni65        Ni66   2.393   1_545  S
C67         C332   1.436       .  S
C68         C346   1.438       .  S
C69         C416   1.436       .  S
C70         C360   1.439       .  S
O71         Ni79   1.932       .  S
O71          C81   1.283       .  A
O72         Ni79   1.933       .  S
O72          C82   1.283       .  A
O73         Ni79   1.909       .  S
O73          C83   1.277       .  A
O74         Ni79   1.912       .  S
O74          C84   1.278       .  A
O75         Ni80   1.932       .  S
O75          C84   1.283       .  A
O76         Ni80   1.931       .  S
O76          C83   1.283       .  A
O77         Ni80   1.910       .  S
O77          C82   1.277       .  A
O78         Ni80   1.909       .  S
O78          C81   1.277       .  A
Ni79        Ni80   2.393       .  S
C81         C302   1.439       .  S
C82         C316   1.440       .  S
C83         C288   1.438       .  S
C84         C358   1.440       .  S
O85         Ni93   1.929       .  S
O85          C95   1.282       .  A
O86         Ni93   1.929       .  S
O86          C96   1.283       .  A
O87         Ni93   1.909       .  S
O87          C97   1.278       .  A
O88         Ni93   1.912       .  S
O88          C98   1.278       .  A
O89         Ni94   1.929       .  S
O89          C98   1.282       .  A
O90         Ni94   1.927       .  S
O90          C97   1.282       .  A
O91         Ni94   1.910       .  S
O91          C96   1.278       .  A
O92         Ni94   1.908       .  S
O92          C95   1.277       .  A
Ni93        Ni94   2.393       .  S
C95         C330   1.436       .  S
C96         C344   1.438       .  S
C97         C374   1.435       .  S
C98         C276   1.439       .  S
O99        Ni107   1.932       .  S
O99         C109   1.283       .  A
O100       Ni107   1.933       .  S
O100        C110   1.283       .  A
O101       Ni107   1.908       .  S
O101        C111   1.277       .  A
O102       Ni107   1.912       .  S
O102        C112   1.278       .  A
O103       Ni108   1.929       .  S
O103        C112   1.282       .  A
O104       Ni108   1.927       .  S
O104        C111   1.282       .  A
O105       Ni108   1.910       .  S
O105        C110   1.277       .  A
O106       Ni108   1.909       .  S
O106        C109   1.277       .  A
Ni107      Ni108   2.393       .  S
C109        C304   1.439       .  S
C110        C318   1.439       .  S
C111        C260   1.434       .  S
C112        C274   1.438       .  S
O113       Ni121   1.925       .  S
O113        C123   1.281       .  A
O114       Ni121   1.926       .  S
O114        C124   1.282       .  A
O115       Ni121   1.910       .  S
O115        C125   1.278       .  A
O116       Ni121   1.911       .  S
O116        C126   1.278       .  A
O117       Ni122   1.926       .  S
O117        C126   1.282       .  A
O118       Ni122   1.925       .  S
O118        C125   1.281       .  A
O119       Ni122   1.911       .  S
O119        C124   1.278       .  A
O120       Ni122   1.908       .  S
O120        C123   1.278       .  A
Ni121      Ni122   2.394       .  S
C123        C232   1.433       .  S
C124        C218   1.436       .  S
C125        C262   1.434       .  S
C126        C246   1.436       .  S
O127       Ni135   1.929       .  S
O127        C137   1.283       .  A
O128       Ni135   1.930       .  S
O128        C138   1.283       .  A
O129       Ni135   1.907       .  S
O129        C139   1.277       .  A
O130       Ni135   1.909       .  S
O130        C140   1.277       .  A
O131       Ni136   1.928       .  S
O131        C140   1.282       .  A
O132       Ni136   1.927       .  S
O132        C139   1.282       .  A
O133       Ni136   1.911       .  S
O133        C138   1.278       .  A
O134       Ni136   1.910       .  S
O134        C137   1.278       .  A
Ni135      Ni136   2.393       .  S
C137        C206   1.437       .  S
C138        C190   1.438       .  S
C139        C500   1.434       .  S
C140        C248   1.436       .  S
O141       Ni149   1.925       .  S
O141        C151   1.282       .  A
O142       Ni149   1.927       .  S
O142        C152   1.282       .  A
O143       Ni149   1.912       .  S
O143        C153   1.278       .  A
O144       Ni149   1.914       .  S
O144        C154   1.278       .  A
O145       Ni150   1.930       .  S
O145        C154   1.283       .  A
O146       Ni150   1.929       .  S
O146        C153   1.282       .  A
O147       Ni150   1.910       .  S
O147        C152   1.278       .  A
O148       Ni150   1.907       .  S
O148        C151   1.277       .  A
Ni149      Ni150   2.393       .  S
C151        C234   1.433       .  S
C152        C220   1.436       .  S
C153        C290   1.438       .  S
C154        C178   1.441       .  S
O155       Ni163   1.929       .  S
O155        C165   1.282       .  A
O156       Ni163   1.930       .  S
O156        C166   1.283   1_455  A
O157       Ni163   1.910       .  S
O157        C167   1.277   1_455  A
O158       Ni163   1.912       .  S
O158        C168   1.278       .  A
O159       Ni164   1.931       .  S
O159        C168   1.283   1_655  A
O160       Ni164   1.929       .  S
O160        C167   1.283       .  A
O161       Ni164   1.912       .  S
O161        C166   1.278       .  A
O162       Ni164   1.909       .  S
O162        C165   1.277   1_655  A
Ni163      Ni164   2.393   1_455  S
C165        C204   1.437       .  S
C166        C192   1.439       .  S
C167        C400   1.437       .  S
C168        C176   1.440       .  S
C169        C177   1.446       .  S
C169        C170   1.403       .  A
C169        C174   1.402       .  A
C170        C171   1.402   1_556  A
C170        H179   1.084       .  S
C171        C172   1.402       .  A
C171        H180   1.083       .  S
C172        C175   1.446       .  S
C172        C173   1.402       .  A
C173        C174   1.401   1_554  A
C173        H181   1.084       .  S
C174        H182   1.083       .  S
C175        C176   1.209       .  T
C177        C178   1.209       .  T
C183        C191   1.444       .  S
C183        C184   1.403       .  A
C183        C188   1.401       .  A
C184        C185   1.402       .  A
C184        H193   1.083       .  S
C185        C186   1.402       .  A
C185        H194   1.084       .  S
C186        C189   1.444       .  S
C186        C187   1.402       .  A
C187        C188   1.400       .  A
C187        H195   1.083       .  S
C188        H196   1.084       .  S
C189        C190   1.208       .  T
C191        C192   1.209       .  T
C197        C205   1.442       .  S
C197        C198   1.403   1_655  A
C197        C202   1.401       .  A
C198        C199   1.401   1_565  A
C198        H207   1.084       .  S
C199        C200   1.401   1_455  A
C199        H208   1.083       .  S
C200        C203   1.442       .  S
C200        C201   1.402   1_545  A
C201        C202   1.399       .  A
C201        H209   1.083   1_565  S
C202        H210   1.083       .  S
C203        C204   1.207   1_655  T
C205        C206   1.207       .  T
C211        C219   1.441       .  S
C211        C212   1.402       .  A
C211        C216   1.401       .  A
C212        C213   1.399       .  A
C212        H221   1.084       .  S
C213        C214   1.401       .  A
C213        H222   1.083       .  S
C214        C217   1.441       .  S
C214        C215   1.402       .  A
C215        C216   1.400       .  A
C215        H223   1.084       .  S
C216        H224   1.083       .  S
C217        C218   1.207       .  T
C219        C220   1.207       .  T
C225        C233   1.438   1_655  S
C225        C226   1.400       .  A
C225        C230   1.402       .  A
C226        C227   1.397   1_545  A
C226        H235   1.084       .  S
C227        C228   1.400       .  A
C227        H236   1.083       .  S
C228        C231   1.438       .  S
C228        C229   1.402       .  A
C229        C230   1.400   1_565  A
C229        H237   1.084       .  S
C230        H238   1.083       .  S
C231        C232   1.205       .  T
C233        C234   1.205       .  T
C239        C247   1.442       .  S
C239        C240   1.402       .  A
C239        C244   1.401       .  A
C240        C241   1.400       .  A
C240        H249   1.083       .  S
C241        C242   1.401   1_554  A
C241        H250   1.084   1_554  S
C242        C245   1.442       .  S
C242        C243   1.402       .  A
C243        C244   1.400   1_556  A
C243        H251   1.083       .  S
C244        H252   1.084       .  S
C245        C246   1.207       .  T
C247        C248   1.207       .  T
C253        C261   1.440       .  S
C253        C254   1.400       .  A
C253        C258   1.402       .  A
C254        C255   1.399       .  A
C254        H263   1.084       .  S
C255        C256   1.402       .  A
C255        H264   1.083       .  S
C256        C259   1.440       .  S
C256        C257   1.400       .  A
C257        C258   1.399       .  A
C257        H265   1.083       .  S
C258        H266   1.083       .  S
C259        C260   1.206       .  T
C261        C262   1.206       .  T
C267        C275   1.444       .  S
C267        C268   1.402       .  A
C267        C272   1.402       .  A
C268        C269   1.400       .  A
C268        H277   1.084       .  S
C269        C270   1.402       .  A
C269        H278   1.083       .  S
C270        C273   1.444       .  S
C270        C271   1.402       .  A
C271        C272   1.401       .  A
C271        H279   1.084       .  S
C272        H280   1.083       .  S
C273        C274   1.208       .  T
C275        C276   1.208       .  T
C281        C289   1.443       .  S
C281        C282   1.402       .  A
C281        C286   1.402       .  A
C282        C283   1.400       .  A
C282        H291   1.084       .  S
C283        C284   1.401       .  A
C283        H292   1.083       .  S
C284        C287   1.443       .  S
C284        C285   1.402       .  A
C285        C286   1.401       .  A
C285        H293   1.083       .  S
C286        H294   1.083       .  S
C287        C288   1.208       .  T
C289        C290   1.208       .  T
C295        C303   1.444       .  S
C295        C296   1.403       .  A
C295        C300   1.401       .  A
C296        C297   1.401       .  A
C296        H305   1.084       .  S
C297        C298   1.402   1_665  A
C297        H306   1.083   1_655  S
C298        C301   1.444       .  S
C298        C299   1.402   1_455  A
C299        C300   1.400   1_545  A
C299        H307   1.084       .  S
C300        H308   1.083       .  S
C301        C302   1.208       .  T
C303        C304   1.208       .  T
C309        C317   1.445       .  S
C309        C310   1.402       .  A
C309        C314   1.402       .  A
C310        C311   1.401       .  A
C310        H319   1.083       .  S
C311        C312   1.403       .  A
C311        H320   1.084       .  S
C312        C315   1.445       .  S
C312        C313   1.402       .  A
C313        C314   1.401       .  A
C313        H321   1.083       .  S
C314        H322   1.084       .  S
C315        C316   1.209       .  T
C317        C318   1.209       .  T
C323        C331   1.441   1_565  S
C323        C324   1.402   1_455  A
C323        C328   1.401   1_465  A
C324        C325   1.400       .  A
C324        H333   1.083       .  S
C325        C326   1.401       .  A
C325        H334   1.084       .  S
C326        C329   1.441       .  S
C326        C327   1.402       .  A
C327        C328   1.399   1_565  A
C327        H335   1.083       .  S
C328        H336   1.084   1_655  S
C329        C330   1.207       .  T
C331        C332   1.207       .  T
C337        C345   1.443   1_565  S
C337        C338   1.401       .  A
C337        C342   1.402       .  A
C338        C339   1.400       .  A
C338        H347   1.084       .  S
C339        C340   1.402       .  A
C339        H348   1.083       .  S
C340        C343   1.443       .  S
C340        C341   1.402       .  A
C341        C342   1.401       .  A
C341        H349   1.084       .  S
C342        H350   1.083       .  S
C343        C344   1.208       .  T
C345        C346   1.208       .  T
C351        C359   1.445       .  S
C351        C352   1.403       .  A
C351        C356   1.402       .  A
C352        C353   1.401       .  A
C352        H361   1.083       .  S
C353        C354   1.402       .  A
C353        H362   1.083       .  S
C354        C357   1.445       .  S
C354        C355   1.402       .  A
C355        C356   1.401       .  A
C355        H363   1.083       .  S
C356        H364   1.083       .  S
C357        C358   1.209       .  T
C359        C360   1.209       .  T
C365        C373   1.441       .  S
C365        C366   1.401       .  A
C365        C370   1.401       .  A
C366        C367   1.399       .  A
C366        H375   1.084       .  S
C367        C368   1.401       .  A
C367        H376   1.084       .  S
C368        C371   1.441       .  S
C368        C369   1.402       .  A
C369        C370   1.400       .  A
C369        H377   1.083       .  S
C370        H378   1.083       .  S
C371        C372   1.206       .  T
C373        C374   1.206       .  T
C379        C387   1.443       .  S
C379        C380   1.402       .  A
C379        C384   1.402       .  A
C380        C381   1.400       .  A
C380        H389   1.083       .  S
C381        C382   1.401       .  A
C381        H390   1.084       .  S
C382        C385   1.443       .  S
C382        C383   1.402       .  A
C383        C384   1.401       .  A
C383        H391   1.083       .  S
C384        H392   1.084       .  S
C385        C386   1.208       .  T
C387        C388   1.208       .  T
C393        C401   1.442       .  S
C393        C394   1.402       .  A
C393        C398   1.402       .  A
C394        C395   1.399       .  A
C394        H403   1.084       .  S
C395        C396   1.401       .  A
C395        H404   1.083       .  S
C396        C399   1.442       .  S
C396        C397   1.402       .  A
C397        C398   1.401       .  A
C397        H405   1.084       .  S
C398        H406   1.083       .  S
C399        C400   1.207       .  T
C401        C402   1.207       .  T
C407        C415   1.441       .  S
C407        C408   1.402       .  A
C407        C412   1.401       .  A
C408        C409   1.400       .  A
C408        H417   1.083       .  S
C409        C410   1.402       .  A
C409        H418   1.083       .  S
C410        C413   1.441       .  S
C410        C411   1.401       .  A
C411        C412   1.399       .  A
C411        H419   1.083       .  S
C412        H420   1.083       .  S
C413        C414   1.206       .  T
C415        C416   1.207       .  T
C421        C429   1.444       .  S
C421        C422   1.403   1_565  A
C421        C426   1.401       .  A
C422        C423   1.400       .  A
C422        H431   1.083       .  S
C423        C424   1.401   1_545  A
C423        H432   1.084       .  S
C424        C427   1.444   1_565  S
C424        C425   1.403       .  A
C425        C426   1.401       .  A
C425        H433   1.083       .  S
C426        H434   1.084       .  S
C427        C428   1.208       .  T
C429        C430   1.208       .  T
C435        C443   1.441   1_655  S
C435        C436   1.402   1_665  A
C435        C440   1.401       .  A
C436        C437   1.399   1_455  A
C436        H445   1.083       .  S
C437        C438   1.400   1_545  A
C437        H446   1.084       .  S
C438        C441   1.441   1_565  S
C438        C439   1.403       .  A
C439        C440   1.400       .  A
C439        H447   1.083       .  S
C440        H448   1.084       .  S
C441        C442   1.206       .  T
C443        C444   1.207       .  T
C449        C457   1.443       .  S
C449        C450   1.401   1_655  A
C449        C454   1.403       .  A
C450        C451   1.401       .  A
C450        H459   1.084       .  S
C451        C452   1.403   1_455  A
C451        H460   1.083       .  S
C452        C455   1.444       .  S
C452        C453   1.401       .  A
C453        C454   1.400       .  A
C453        H461   1.084       .  S
C454        H462   1.083       .  S
C455        C456   1.208       .  T
C457        C458   1.208   1_655  T
C463        C471   1.442       .  S
C463        C464   1.401   1_545  A
C463        C468   1.402       .  A
C464        C465   1.401       .  A
C464        H473   1.084       .  S
C465        C466   1.403       .  A
C465        H474   1.083       .  S
C466        C469   1.442       .  S
C466        C467   1.400   1_655  A
C467        C468   1.399   1_465  A
C467        H475   1.084       .  S
C468        H476   1.083   1_655  S
C469        C470   1.207       .  T
C471        C472   1.207       .  T
C477        C485   1.442       .  S
C477        C478   1.402       .  A
C477        C482   1.402       .  A
C478        C479   1.400       .  A
C478        H487   1.083       .  S
C479        C480   1.402       .  A
C479        H488   1.084       .  S
C480        C483   1.442       .  S
C480        C481   1.402       .  A
C481        C482   1.400       .  A
C481        H489   1.083       .  S
C482        H490   1.084       .  S
C483        C484   1.207       .  T
C485        C486   1.207       .  T
C491        C499   1.440       .  S
C491        C492   1.401       .  A
C491        C496   1.402       .  A
C492        C493   1.400       .  A
C492        H501   1.083   1_655  S
C493        C494   1.402       .  A
C493        H502   1.083   1_655  S
C494        C497   1.440       .  S
C494        C495   1.400       .  A
C495        C496   1.398       .  A
C495        H503   1.083       .  S
C496        H504   1.084       .  S
C497        C498   1.206       .  T
C499        C500   1.206       .  T
