geometry optimzed in LAMMPS
_audit_creation_date              2020-12-01 
_audit_creation_method            'lammps2cif' 
_symmetry_space_group_name_H-M    'P1' 
_symmetry_Int_Tables_number       1 
_symmetry_cell_setting            triclinic 
loop_ 
_symmetry_equiv_pos_as_xyz 
  x,y,z 
_cell_length_a                    37.37979275 
_cell_length_b                    37.378300554239296 
_cell_length_c                    37.53576640693653 
_cell_angle_alpha                 89.923973628444 
_cell_angle_beta                  89.94775271233036 
_cell_angle_gamma                 90.04570841919481 
loop_ 
_atom_site_label 
_atom_site_type_symbol 
_atom_site_fract_x 
_atom_site_fract_y 
_atom_site_fract_z 
_atom_site_charge 
O1          O  0.75944365  0.46126158  0.80690333    -0.75300
O2          O  0.80757163  0.53621807  0.75648134    -0.75300
O3          O  0.75751882  0.53349768  0.80904885    -0.75300
O4          O  0.80920073  0.46361656  0.75390149    -0.75400
O5          O  0.76497090  0.46316904  0.71429986    -0.75300
O6          O  0.71523137  0.53494260  0.76716119    -0.75300
O7          O  0.76520801  0.53530011  0.71499750    -0.75300
O8          O  0.71565239  0.46246187  0.76680226    -0.75300
Ni9        Ni  0.78504252  0.49861276  0.78304146     1.25400
Ni10       Ni  0.73874942  0.49896844  0.73941721     1.25400
C11         C  0.72939639  0.44966288  0.79538078     0.86900
C12         C  0.79438332  0.54823494  0.72731821     0.86900
C13         C  0.72781951  0.54567626  0.79697991     0.86900
C14         C  0.79560055  0.45209315  0.72466443     0.87100
O15         O  0.41384618  0.86249011  0.75615114    -0.75300
O16         O  0.48445188  0.80980081  0.80839011    -0.75300
O17         O  0.48604553  0.86261474  0.75829391    -0.75300
O18         O  0.41204692  0.80995737  0.80594501    -0.75400
O19         O  0.41485199  0.76808497  0.76407474    -0.75300
O20         O  0.48628525  0.82209895  0.71485092    -0.75300
O21         O  0.48706237  0.76967662  0.76450696    -0.75300
O22         O  0.41392894  0.82030640  0.71415181    -0.75300
Ni23       Ni  0.44910637  0.83767806  0.78378223     1.25400
Ni24       Ni  0.45060244  0.79358941  0.73789342     1.25400
C25         C  0.40229984  0.85000682  0.72654589     0.86900
C26         C  0.49742772  0.78112323  0.79490913     0.86900
C27         C  0.49767941  0.85150787  0.72813301     0.86900
C28         C  0.40104488  0.78027561  0.79278984     0.87100
O29         O  0.71577963  0.81785011  0.41726014    -0.75300
O30         O  0.76823933  0.77000430  0.49028062    -0.75300
O31         O  0.71675434  0.82029626  0.48917820    -0.75300
O32         O  0.76742121  0.76761550  0.41836537    -0.75400
O33         O  0.80817574  0.81072532  0.41485781    -0.75300
O34         O  0.75874324  0.86240619  0.48845408    -0.75300
O35         O  0.81087140  0.81173885  0.48706460    -0.75300
O36         O  0.75655121  0.86147616  0.41638547    -0.75300
Ni37       Ni  0.74061526  0.79244913  0.45385410     1.25400
Ni38       Ni  0.78514147  0.83813651  0.45165288     1.25400
C39         C  0.72742582  0.84760647  0.40496370     0.86900
C40         C  0.79823408  0.78286967  0.50047837     0.86900
C41         C  0.72910836  0.85002477  0.50064474     0.86900
C42         C  0.79575931  0.78053915  0.40424148     0.87100
C43         C  0.24286102  0.92707188  0.28938709     0.79400
N44         N  0.24137309  0.96313249  0.28659937    -0.78900
C45         C  0.26289554  0.98059563  0.26328931     0.81800
N46         N  0.28622132  0.96180614  0.24280905    -0.78900
C47         C  0.28767426  0.92554104  0.24504938     0.81900
N48         N  0.26629775  0.90841855  0.26896513    -0.80600
C49         C  0.28881832  0.07388400  0.24335160     0.79400
N50         N  0.28618300  0.03769633  0.24144870    -0.78900
C51         C  0.26327227  0.01971146  0.26302230     0.81800
N52         N  0.24294010  0.03797100  0.28676569    -0.78900
C53         C  0.24534822  0.07407394  0.28906434     0.81900
N54         N  0.26883600  0.09187123  0.26779101    -0.80600
O55         O  0.41287677  0.13714693  0.13798816    -0.75300
O56         O  0.48329057  0.19230022  0.08829898    -0.75300
O57         O  0.48525652  0.13951410  0.13755480    -0.75300
O58         O  0.41137676  0.19020509  0.08854051    -0.75400
O59         O  0.41057635  0.23121504  0.13175068    -0.75300
O60         O  0.48366062  0.17984783  0.18115979    -0.75300
O61         O  0.48304954  0.23262900  0.13177529    -0.75300
O62         O  0.41115658  0.17853900  0.18078268    -0.75300
Ni63       Ni  0.44820636  0.16329311  0.11159423     1.25400
Ni64       Ni  0.44709075  0.20698923  0.15794773     1.25400
C65         C  0.40024355  0.14898828  0.16741544     0.86900
C66         C  0.49506397  0.22143955  0.10177234     0.86900
C67         C  0.49690973  0.15150336  0.16732213     0.86900
C68         C  0.39928482  0.21929047  0.10187842     0.87100
C69         C  0.59064874  0.92171336  0.26347562     0.79400
N70         N  0.59313974  0.95773458  0.25923302    -0.78900
C71         C  0.61714689  0.97673711  0.27857616     0.81800
N72         N  0.63885305  0.95958974  0.30190445    -0.78900
C73         C  0.63641725  0.92372821  0.30667100     0.81900
N74         N  0.61246928  0.90486901  0.28700970    -0.80600
C75         C  0.59951497  0.06989940  0.24984239     0.79400
N76         N  0.59754977  0.03370466  0.25259243    -0.78900
C77         C  0.61944014  0.01567782  0.27513706     0.81800
N78         N  0.64298136  0.03398105  0.29558959    -0.78900
C79         C  0.64504021  0.07013068  0.29366736     0.81900
N80         N  0.62297562  0.08783342  0.27100239    -0.80600
O81         O  0.75597888  0.13514333  0.41117103    -0.75300
O82         O  0.80857890  0.19063739  0.47891273    -0.75300
O83         O  0.75643641  0.13965109  0.48306397    -0.75300
O84         O  0.80776942  0.18596050  0.40703766    -0.75400
O85         O  0.76647955  0.22859419  0.40541009    -0.75300
O86         O  0.71461557  0.18181591  0.48048098    -0.75300
O87         O  0.76642479  0.23261488  0.47717276    -0.75300
O88         O  0.71470088  0.17815235  0.40827679    -0.75300
Ni89       Ni  0.78366323  0.16131218  0.44517991     1.25400
Ni90       Ni  0.73904915  0.20675078  0.44279070     1.25400
C91         C  0.72680034  0.14770111  0.39848101     0.86900
C92         C  0.79652905  0.22118372  0.48870144     0.86900
C93         C  0.72663496  0.15270574  0.49399455     0.86900
C94         C  0.79591367  0.21527679  0.39386226     0.87100
C95         C  0.60844383  0.93007245  0.65400765     0.79400
N96         N  0.61118780  0.96621687  0.65636633    -0.78900
C97         C  0.63477198  0.98432626  0.63538911     0.81800
N98         N  0.65556101  0.96602631  0.61191179    -0.78900
C99         C  0.65311924  0.92981288  0.60961243     0.81900
N100        N  0.62903592  0.91215682  0.63024769    -0.80600
C101        C  0.65087622  0.07823036  0.60782123     0.79400
N102        N  0.65426854  0.04212216  0.61081572    -0.78900
C103        C  0.63434849  0.02367748  0.63493070     0.81800
N104        N  0.61073928  0.04149527  0.65582589    -0.78900
C105        C  0.60612966  0.07735291  0.65253004     0.81900
N106        N  0.62638230  0.09558912  0.62837363    -0.80600
C107        C  0.29521671  0.92682057  0.64573965     0.79400
N108        N  0.29202720  0.96289776  0.64918748    -0.78900
C109        C  0.26983239  0.98168957  0.62749842     0.81800
N110        N  0.25096715  0.96426852  0.60190514    -0.78900
C111        C  0.25441038  0.92833151  0.59771732     0.81900
N112        N  0.27655160  0.90986882  0.61971697    -0.80600
C113        C  0.24750629  0.07596548  0.60656203     0.79400
N114        N  0.27062634  0.09350064  0.62842364    -0.78900
C115        C  0.29157436  0.07517295  0.65179877     0.81800
N116        N  0.29053892  0.03884713  0.65218415    -0.78900
C117        C  0.26830157  0.02093953  0.62981389     0.81900
N118        N  0.24693178  0.03958926  0.60720888    -0.80600
O119        O  0.41244454  0.18035046  0.71874618    -0.75300
O120        O  0.48212147  0.23464619  0.76942733    -0.75300
O121        O  0.48504774  0.18306755  0.71944586    -0.75300
O122        O  0.40997409  0.23195607  0.76895304    -0.75400
O123        O  0.41153334  0.19063347  0.81190096    -0.75300
O124        O  0.48555346  0.14110210  0.76173822    -0.75300
O125        O  0.48357836  0.19330038  0.81193519    -0.75300
O126        O  0.41289851  0.13858577  0.76105882    -0.75300
Ni127      Ni  0.44730866  0.20890900  0.74261921     1.25400
Ni128      Ni  0.44839067  0.16434546  0.78816142     1.25400
C129        C  0.40130867  0.15041679  0.73108353     0.86900
C130        C  0.49429187  0.22334859  0.79917372     0.86900
C131        C  0.49791422  0.15421158  0.73268403     0.86900
C132        C  0.39893379  0.21964448  0.79885864     0.87100
O133        O  0.18044300  0.17771302  0.41268822    -0.75300
O134        O  0.12673113  0.23058984  0.48143170    -0.75300
O135        O  0.17863177  0.18017456  0.48492406    -0.75300
O136        O  0.12867023  0.22791748  0.40922897    -0.75400
O137        O  0.08684146  0.18538902  0.40993391    -0.75300
O138        O  0.13740303  0.13700966  0.48487385    -0.75300
O139        O  0.08517297  0.18778053  0.48215981    -0.75300
O140        O  0.13900265  0.13493646  0.41277680    -0.75300
Ni141      Ni  0.15506154  0.20560494  0.44708594     1.25400
Ni142      Ni  0.11058941  0.15975781  0.44750251     1.25400
C143        C  0.16880192  0.14759108  0.40137138     0.86900
C144        C  0.09700655  0.21807160  0.49299903     0.86900
C145        C  0.16655401  0.15040784  0.49693463     0.86900
C146        C  0.09969821  0.21440144  0.39689614     0.87100
C147        C  0.60082587  0.30435828  0.87776840     0.79400
N148        N  0.60172867  0.30415750  0.91391968    -0.78900
C149        C  0.62473489  0.32580053  0.93180172     0.81800
N150        N  0.64639722  0.34846715  0.91337400    -0.78900
C151        C  0.64497035  0.34944048  0.87724374     0.81900
N152        N  0.62232943  0.32730632  0.85969126    -0.80600
C153        C  0.59694385  0.30965053  0.02494559     0.79400
N154        N  0.59935197  0.30716072  0.98895579    -0.78900
C155        C  0.62414918  0.32653427  0.97086360     0.81800
N156        N  0.64697277  0.34808620  0.98899608    -0.78900
C157        C  0.64529942  0.35032045  0.02510817     0.81900
N158        N  0.61990354  0.33129809  0.04279051    -0.80600
O159        O  0.71926460  0.46598090  0.12918523    -0.75300
O160        O  0.76925714  0.53919493  0.17929776    -0.75300
O161        O  0.71842104  0.53820968  0.12868118    -0.75300
O162        O  0.77082484  0.46680653  0.17967515    -0.75400
O163        O  0.81255668  0.46689797  0.13729308    -0.75300
O164        O  0.76040168  0.53888183  0.08662446    -0.75300
O165        O  0.81177089  0.53926398  0.13749027    -0.75300
O166        O  0.76072747  0.46679664  0.08637379    -0.75300
Ni167      Ni  0.74297574  0.50247603  0.15570459     1.25400
Ni168      Ni  0.78790821  0.50294030  0.11043451     1.25400
C169        C  0.73128153  0.45488694  0.09926434     0.86900
C170        C  0.79873521  0.55116134  0.16674654     0.86900
C171        C  0.73084599  0.55056552  0.09929525     0.86900
C172        C  0.80058854  0.45533218  0.16718105     0.87100
C173        C  0.59577954  0.69193152  0.87403519     0.79400
N174        N  0.59831624  0.69433415  0.91002297    -0.78900
C175        C  0.62208595  0.67398813  0.92824066     0.81800
N176        N  0.64414785  0.65148391  0.91018863    -0.78900
C177        C  0.64276665  0.64950662  0.87404716     0.81900
N178        N  0.61821848  0.66952638  0.85620391    -0.80600
C179        C  0.60194247  0.69864380  0.02196771     0.79400
N180        N  0.62331713  0.67520624  0.03951325    -0.78900
C181        C  0.64425245  0.65187009  0.02150559     0.81800
N182        N  0.64435061  0.65219416  0.98541109    -0.78900
C183        C  0.62302158  0.67529174  0.96735114     0.81900
N184        N  0.60147596  0.69821591  0.98568795    -0.80600
C185        C  0.29369684  0.69861184  0.87042618     0.79400
N186        N  0.29287170  0.69847141  0.90651910    -0.78900
C187        C  0.27018570  0.67658815  0.92450627     0.81800
N188        N  0.24848344  0.65402300  0.90610457    -0.78900
C189        C  0.24924825  0.65339641  0.86980368     0.81900
N190        N  0.27221428  0.67553997  0.85243628    -0.80600
C191        C  0.29694666  0.69724742  0.01701699     0.79400
N192        N  0.29428542  0.69803505  0.98099702    -0.78900
C193        C  0.27071051  0.67655095  0.96367482     0.81800
N194        N  0.24896726  0.65442455  0.98269881    -0.78900
C195        C  0.25067315  0.65403221  0.01892086     0.81900
N196        N  0.27495044  0.67516452  0.03571729    -0.80600
O197        O  0.40862891  0.81505098  0.18075684    -0.75300
O198        O  0.48129111  0.76457491  0.12994317    -0.75300
O199        O  0.48089443  0.81299856  0.18327311    -0.75300
O200        O  0.40889314  0.76661154  0.12753638    -0.75400
O201        O  0.41298010  0.80957617  0.08643287    -0.75300
O202        O  0.48184517  0.85789900  0.14435071    -0.75300
O203        O  0.48559378  0.80931841  0.09118126    -0.75300
O204        O  0.40960713  0.85812731  0.14000506    -0.75300
Ni205      Ni  0.44482913  0.78822510  0.15674959     1.25400
Ni206      Ni  0.44759656  0.83530148  0.11402912     1.25400
C207        C  0.39669267  0.84477217  0.16880030     0.86900
C208        C  0.49623614  0.77880374  0.10271115     0.86900
C209        C  0.49325982  0.84328901  0.17301347     0.86900
C210        C  0.39902179  0.78047496  0.09792149     0.87100
C211        C  0.30043762  0.30714723  0.87883550     0.79400
N212        N  0.29748053  0.30450302  0.91476901    -0.78900
C213        C  0.27340125  0.32480494  0.93263762     0.81800
N214        N  0.25170246  0.34732782  0.91440800    -0.78900
C215        C  0.25413847  0.35029263  0.87850174     0.81900
N216        N  0.27860245  0.32998362  0.86092703    -0.80600
C217        C  0.29444729  0.30240271  0.02614217     0.79400
N218        N  0.29351434  0.30138678  0.99000165    -0.78900
C219        C  0.27257165  0.32445509  0.97157086     0.81800
N220        N  0.25290178  0.34910202  0.98933578    -0.78900
C221        C  0.25410807  0.35087762  0.02539975     0.81900
N222        N  0.27488740  0.32741736  0.04368927    -0.80600
C223        C  0.87261892  0.30329442  0.59474554     0.79400
N224        N  0.85410464  0.32624719  0.61591698    -0.78900
C225        C  0.87147291  0.34622131  0.64073585     0.81800
N226        N  0.90764220  0.34405690  0.64331309    -0.78900
C227        C  0.92633719  0.32158482  0.62186455     0.81900
N228        N  0.90873382  0.30124211  0.59764868    -0.80600
C229        C  0.02068411  0.30101585  0.59966943     0.79400
N230        N  0.03777966  0.32463925  0.62113161    -0.78900
C231        C  0.01939754  0.34558061  0.64425221     0.81800
N232        N  0.98317253  0.34403865  0.64495169    -0.78900
C233        C  0.96552451  0.32113315  0.62312745     0.81900
N234        N  0.98431626  0.29968936  0.60066286    -0.80600
O235        O  0.08663069  0.46110207  0.75582687    -0.75300
O236        O  0.13976863  0.53236414  0.80695638    -0.75300
O237        O  0.08864182  0.53289712  0.75521253    -0.75300
O238        O  0.13743290  0.46001384  0.80769205    -0.75400
O239        O  0.18023712  0.45869019  0.76628256    -0.75300
O240        O  0.13163528  0.53166261  0.71387967    -0.75300
O241        O  0.18227300  0.53119802  0.76520133    -0.75300
O242        O  0.12969473  0.45964238  0.71487039    -0.75300
Ni243      Ni  0.11164645  0.49666249  0.78299792     1.25400
Ni244      Ni  0.15750563  0.49521570  0.73863937     1.25400
C245        C  0.09903548  0.44942152  0.72619232     0.86900
C246        C  0.16977016  0.54344488  0.79450112     0.86900
C247        C  0.10185183  0.54372508  0.72563411     0.86900
C248        C  0.16679316  0.44725008  0.79555468     0.87100
C249        C  0.87738529  0.69440392  0.59837089     0.79400
N250        N  0.85892486  0.67358659  0.62171275    -0.78900
C251        C  0.87622494  0.65081896  0.64413761     0.81800
N252        N  0.91246950  0.64854011  0.64239349    -0.78900
C253        C  0.93117520  0.66978227  0.61967187     0.81900
N254        N  0.91354188  0.69276224  0.59807347    -0.80600
C255        C  0.02405768  0.68388204  0.58914654     0.79400
N256        N  0.04190959  0.65981569  0.60963653    -0.78900
C257        C  0.02396174  0.63886752  0.63331999     0.81800
N258        N  0.98806659  0.64275421  0.63698187    -0.78900
C259        C  0.97006492  0.66673510  0.61674348     0.81900
N260        N  0.98812632  0.68731044  0.59295175    -0.80600
O261        O  0.13584058  0.86520467  0.41259945    -0.75300
O262        O  0.08703103  0.80944148  0.48362587    -0.75300
O263        O  0.13718223  0.86260797  0.48440715    -0.75300
O264        O  0.08564431  0.81245374  0.41178669    -0.75400
O265        O  0.12927559  0.77183314  0.40919679    -0.75300
O266        O  0.18001373  0.82149250  0.48269673    -0.75300
O267        O  0.13028760  0.76872641  0.48117176    -0.75300
O268        O  0.17898679  0.82414125  0.41102937    -0.75300
Ni269      Ni  0.10984345  0.83890022  0.44823097     1.25400
Ni270      Ni  0.15612429  0.79510155  0.44596972     1.25400
C271        C  0.16595554  0.85400063  0.40065492     0.86900
C272        C  0.10044645  0.77961432  0.49392504     0.86900
C273        C  0.16734094  0.85070828  0.49536504     0.86900
C274        C  0.09908935  0.78393848  0.39849025     0.87100
C275        C  0.87269878  0.70302747  0.29395716     0.79400
N276        N  0.85451290  0.68089645  0.27169857    -0.78900
C277        C  0.87205837  0.65984923  0.24798701     0.81800
N278        N  0.90838426  0.66051489  0.24732397    -0.78900
C279        C  0.92690587  0.68206137  0.26970513     0.81900
N280        N  0.90899772  0.70305034  0.29318103    -0.80600
C281        C  0.02014922  0.69753888  0.29797707     0.79400
N282        N  0.98423996  0.70095206  0.29422079    -0.78900
C283        C  0.96602868  0.68040190  0.27069781     0.81800
N284        N  0.98399642  0.65661974  0.25006793    -0.78900
C285        C  0.02006326  0.65345746  0.25298225     0.81900
N286        N  0.03797861  0.67365445  0.27722116    -0.80600
C287        C  0.87395093  0.29831607  0.28696654     0.79400
N288        N  0.85707830  0.32230360  0.26560825    -0.78900
C289        C  0.87572551  0.34274412  0.24213691     0.81800
N290        N  0.91182728  0.33933402  0.24009985    -0.78900
C291        C  0.92916664  0.31521137  0.26098401     0.81900
N292        N  0.91013176  0.29483193  0.28440895    -0.80600
C293        C  0.02201982  0.29530321  0.28923317     0.79400
N294        N  0.04059495  0.31954645  0.26936652    -0.78900
C295        C  0.02356690  0.34138936  0.24582888     0.81800
N296        N  0.98750004  0.33875028  0.24205150    -0.78900
C297        C  0.96858512  0.31457025  0.26152242     0.81900
N298        N  0.98602028  0.29289993  0.28479498    -0.80600
O299        O  0.17876932  0.53980728  0.13177835    -0.75300
O300        O  0.12876696  0.46401448  0.17938842    -0.75300
O301        O  0.18014538  0.46782471  0.12889478    -0.75300
O302        O  0.12731909  0.53632994  0.18260184    -0.75400
O303        O  0.08557965  0.53793389  0.14038874    -0.75300
O304        O  0.13820153  0.46808333  0.08705013    -0.75300
O305        O  0.08649832  0.46549605  0.13780281    -0.75300
O306        O  0.13767550  0.54037208  0.08909530    -0.75300
Ni307      Ni  0.15515977  0.50203168  0.15715445     1.25400
Ni308      Ni  0.11043990  0.50310375  0.11208379     1.25400
C309        C  0.16740276  0.55177402  0.10189504     0.86900
C310        C  0.09945787  0.45189476  0.16637762     0.86900
C311        C  0.16810271  0.45654467  0.09902340     0.86900
C312        C  0.09740781  0.54798181  0.17084183     0.87100
C313        C  0.08036652  0.42233703  0.18539108    -0.07000
C314        C  0.08884905  0.41604379  0.22138476    -0.18100
C315        C  0.07084940  0.39017948  0.24163530     0.10200
C316        C  0.04362471  0.36927520  0.22579699    -0.06900
C317        C  0.03511977  0.37530473  0.18985250    -0.18100
C318        C  0.05349830  0.40085445  0.16938263     0.10300
S319        S  0.08260855  0.38688634  0.28810479    -0.33100
S320        S  0.04238521  0.40312149  0.12273015    -0.33100
H321        H  0.07830793  0.40366075  0.11141694     0.28300
H322        H  0.04714610  0.38301058  0.30011895     0.28300
H323        H  0.10906855  0.43217445  0.23440086     0.18900
H324        H  0.01460563  0.35918741  0.17724971     0.18900
C325        C  0.07647803  0.57367570  0.19254995    -0.07000
C326        C  0.05382874  0.59804239  0.17511194    -0.18100
C327        C  0.03544271  0.62457269  0.19399736     0.10200
C328        C  0.03949641  0.62691907  0.23133116    -0.06900
C329        C  0.06163182  0.60234978  0.24887672    -0.18100
C330        C  0.07938547  0.57533584  0.23017393     0.10300
S331        S  0.00854105  0.65551782  0.16868999    -0.33100
S332        S  0.10333230  0.54268756  0.25632907    -0.33100
H333        H  0.09161461  0.51322357  0.23610847     0.28300
H334        H  0.01552848  0.68536492  0.19038140     0.28300
H335        H  0.05118962  0.59714785  0.14637065     0.18900
H336        H  0.06406081  0.60339643  0.27764175     0.18900
C337        C  0.07890275  0.76401549  0.37127776    -0.07000
C338        C  0.04316047  0.75533581  0.37847200    -0.18100
C339        C  0.02372203  0.73284826  0.35588763     0.10200
C340        C  0.03978159  0.71985157  0.32417625    -0.06900
C341        C  0.07546817  0.72923399  0.31676863    -0.18100
C342        C  0.09505934  0.75116898  0.33981243     0.10300
S343        S  0.97976055  0.71972037  0.37089235    -0.33100
S344        S  0.14012316  0.76277349  0.32700474    -0.33100
H345        H  0.13958509  0.79722866  0.34204084     0.28300
H346        H  0.98412591  0.68350467  0.36162146     0.28300
H347        H  0.03085548  0.76459834  0.40294497     0.18900
H348        H  0.08809560  0.71997780  0.29247792     0.18900
C349        C  0.04354491  0.70759421  0.56419670    -0.07000
C350        C  0.03340306  0.74369710  0.56226461    -0.18100
C351        C  0.05208137  0.76818473  0.54098029     0.10200
C352        C  0.08107554  0.75626991  0.51972991    -0.06900
C353        C  0.09103079  0.71997666  0.52172381    -0.18100
C354        C  0.07259938  0.69564836  0.54331594     0.10300
S355        S  0.03846690  0.81431009  0.54389256    -0.33100
S356        S  0.08637069  0.64945746  0.54133152    -0.33100
H357        H  0.05147885  0.63543803  0.54326210     0.28300
H358        H  0.07365835  0.82725501  0.54735623     0.28300
H359        H  0.01145755  0.75328055  0.57855738     0.18900
H360        H  0.11279883  0.70998512  0.50546616     0.18900
C361        C  0.08173567  0.56936123  0.70390718    -0.07000
C362        C  0.04742047  0.55963820  0.69251607    -0.18100
C363        C  0.02846414  0.58093085  0.66843374     0.10200
C364        C  0.04365348  0.61349956  0.65630211    -0.06900
C365        C  0.07806511  0.62311438  0.66793937    -0.18100
C366        C  0.09706744  0.60156965  0.69174881     0.10300
S367        S  0.98627154  0.56367945  0.65265483    -0.33100
S368        S  0.14007744  0.61722636  0.70683933    -0.33100
H369        H  0.13717980  0.60249140  0.74122004     0.28300
H370        H  0.99135693  0.57510689  0.61726847     0.28300
H371        H  0.03597171  0.53442791  0.70121393     0.18900
H372        H  0.08988698  0.64814733  0.65928725     0.18900
C373        C  0.03884446  0.37185358  0.66611668    -0.07000
C374        C  0.06441399  0.39325404  0.64907924    -0.18100
C375        C  0.08306016  0.41972586  0.66750267     0.10200
C376        C  0.07767748  0.42390246  0.70465693    -0.06900
C377        C  0.05154773  0.40274811  0.72162122    -0.18100
C378        C  0.03212012  0.37685811  0.70280576     0.10300
S379        S  0.11132374  0.44862048  0.64118558    -0.33100
S380        S  0.00037440  0.35015426  0.72744274    -0.33100
H381        H  0.00664517  0.31836075  0.70844048     0.28300
H382        H  0.09925270  0.48022436  0.65765157     0.28300
H383        H  0.06894619  0.39023925  0.62070421     0.18900
H384        H  0.04678625  0.40571779  0.74993879     0.18900
C385        C  0.23303113  0.37843397  0.04416749    -0.07000
C386        C  0.19919939  0.38730214  0.03065448    -0.18100
C387        C  0.17761925  0.41295172  0.04712653     0.10200
C388        C  0.18963669  0.42999154  0.07869175    -0.06900
C389        C  0.22379513  0.42116040  0.09186970    -0.18100
C390        C  0.24569083  0.39626943  0.07479873     0.10300
S391        S  0.13517444  0.42193518  0.02633645    -0.33100
S392        S  0.29008959  0.39013854  0.09256271    -0.33100
H393        H  0.30687014  0.38860187  0.05902542     0.28300
H394        H  0.14333234  0.45826081  0.02057035     0.28300
H395        H  0.18933475  0.37401009  0.00695858     0.18900
H396        H  0.23411908  0.43425260  0.11545569     0.18900
C397        C  0.18620774  0.42005085  0.81645661    -0.07000
C398        C  0.18794042  0.42426558  0.85348573    -0.18100
C399        C  0.21015508  0.40279803  0.87443935     0.10200
C400        C  0.23029737  0.37493819  0.85826982    -0.06900
C401        C  0.22707569  0.36986643  0.82122322    -0.18100
C402        C  0.20522192  0.39178320  0.80034409     0.10300
S403        S  0.21272812  0.41445755  0.92097236    -0.33100
S404        S  0.20154572  0.38121531  0.75361195    -0.33100
H405        H  0.16540529  0.39129633  0.75059515     0.28300
H406        H  0.25035472  0.41598446  0.92107967     0.28300
H407        H  0.17318224  0.44572502  0.86611932     0.18900
H408        H  0.24131425  0.34827835  0.80822426     0.18900
C409        C  0.18901383  0.57861139  0.08149253    -0.07000
C410        C  0.17293048  0.59691535  0.05281751    -0.18100
C411        C  0.19186658  0.62217581  0.03247082     0.10200
C412        C  0.22816382  0.62925334  0.04026634    -0.06900
C413        C  0.24408987  0.61160135  0.06915470    -0.18100
C414        C  0.22542636  0.58622112  0.08933752     0.10300
S415        S  0.16764755  0.64564074  0.99813298    -0.33100
S416        S  0.25082916  0.56348820  0.12328264    -0.33100
H417        H  0.24198156  0.52920054  0.11052068     0.28300
H418        H  0.18475967  0.67869917  0.00376191     0.28300
H419        H  0.14511159  0.59197853  0.04639916     0.18900
H420        H  0.27197637  0.61661517  0.07531229     0.18900
C421        C  0.32316260  0.72023537  0.03627128    -0.07000
C422        C  0.31607429  0.72849445  0.07216387    -0.18100
C423        C  0.33957782  0.74927919  0.09235496     0.10200
C424        C  0.37131277  0.76231877  0.07669438    -0.06900
C425        C  0.37797668  0.75553544  0.04060668    -0.18100
C426        C  0.35486962  0.73406829  0.02046507     0.10300
S427        S  0.32709168  0.75895572  0.13776981    -0.33100
S428        S  0.36951149  0.72308347  0.97607267    -0.33100
H429        H  0.36262950  0.68626903  0.97995600     0.28300
H430        H  0.34204648  0.79349334  0.13827811     0.28300
H431        H  0.29180123  0.71889348  0.08476025     0.18900
H432        H  0.40252037  0.76524482  0.02857266     0.18900
C433        C  0.22741986  0.62664822  0.84972182    -0.07000
C434        C  0.21388496  0.59688226  0.86844454    -0.18100
C435        C  0.19579661  0.56918046  0.85106050     0.10200
C436        C  0.19022751  0.57102696  0.81396537    -0.06900
C437        C  0.20377719  0.60036680  0.79499809    -0.18100
C438        C  0.22150197  0.62842294  0.81230585     0.10300
S439        S  0.18272982  0.53094543  0.87729193    -0.33100
S440        S  0.23402557  0.66602367  0.78484681    -0.33100
H441        H  0.22102031  0.69161428  0.80907669     0.28300
H442        H  0.19182304  0.50595647  0.85083308     0.28300
H443        H  0.21842670  0.59434688  0.89683581     0.18900
H444        H  0.19951849  0.60202470  0.76649247     0.18900
C445        C  0.52569996  0.75961020  0.08387623    -0.07000
C446        C  0.53790908  0.77294508  0.05088571    -0.18100
C447        C  0.56397672  0.75491015  0.03087508     0.10200
C448        C  0.57715071  0.72157692  0.04292718    -0.06900
C449        C  0.56600464  0.70902240  0.07645003    -0.18100
C450        C  0.54156996  0.72788865  0.09733692     0.10300
S451        S  0.58042474  0.77684214  0.99133408    -0.33100
S452        S  0.53317086  0.71003065  0.14121174    -0.33100
H453        H  0.53844382  0.74314836  0.15826505     0.28300
H454        H  0.61621924  0.76644813  0.99661090     0.28300
H455        H  0.52732998  0.79784506  0.04055154     0.18900
H456        H  0.57647360  0.68409405  0.08680794     0.18900
C457        C  0.81785461  0.57903896  0.18660284    -0.07000
C458        C  0.79891833  0.60947011  0.19751386    -0.18100
C459        C  0.81573230  0.63694567  0.21669954     0.10200
C460        C  0.85246696  0.63353121  0.22562376    -0.06900
C461        C  0.87124491  0.60303678  0.21404155    -0.18100
C462        C  0.85434660  0.57576470  0.19513403     0.10300
S463        S  0.78997586  0.67627723  0.22815389    -0.33100
S464        S  0.88036633  0.53655260  0.18455516    -0.33100
H465        H  0.85252490  0.51195127  0.19045125     0.28300
H466        H  0.75811184  0.66653239  0.21076657     0.28300
H467        H  0.77089280  0.61175309  0.19058650     0.18900
H468        H  0.89917316  0.59956556  0.22088523     0.18900
C469        C  0.82120960  0.42790087  0.18712421    -0.07000
C470        C  0.84304496  0.40402398  0.16798060    -0.18100
C471        C  0.86093845  0.37585069  0.18501089     0.10200
C472        C  0.85716098  0.37125808  0.22215309    -0.06900
C473        C  0.83605292  0.39547650  0.24140328    -0.18100
C474        C  0.81879858  0.42405491  0.22459700     0.10300
S475        S  0.88692997  0.34592459  0.15767331    -0.33100
S476        S  0.79603722  0.45562970  0.25295437    -0.33100
H477        H  0.80756703  0.48599965  0.23394155     0.28300
H478        H  0.87987631  0.31501557  0.17790126     0.28300
H479        H  0.84539339  0.40661333  0.13930938     0.18900
H480        H  0.83401092  0.39286630  0.27009087     0.18900
C481        C  0.70986896  0.57780753  0.07952193    -0.07000
C482        C  0.67333731  0.58131449  0.08777199    -0.18100
C483        C  0.65127398  0.60475354  0.06898610     0.10200
C484        C  0.66581771  0.62555853  0.04110124    -0.06900
C485        C  0.70213727  0.62221505  0.03261000    -0.18100
C486        C  0.72448131  0.59935628  0.05196424     0.10300
S487        S  0.60454394  0.60561641  0.08109843    -0.33100
S488        S  0.77148139  0.60094090  0.04138909    -0.33100
H489        H  0.78233339  0.60242256  0.07726760     0.28300
H490        H  0.59173940  0.61067632  0.04623265     0.28300
H491        H  0.66145211  0.56502483  0.10854786     0.18900
H492        H  0.71351254  0.63867612  0.01165833     0.18900
C493        C  0.71050066  0.42800588  0.07957287    -0.07000
C494        C  0.69754883  0.39821764  0.09822354    -0.18100
C495        C  0.67753140  0.37171456  0.08115793     0.10200
C496        C  0.66925272  0.37538173  0.04444564    -0.06900
C497        C  0.68267832  0.40524779  0.02583388    -0.18100
C498        C  0.70268335  0.43168577  0.04301037     0.10300
S499        S  0.66480300  0.33360447  0.10780002    -0.33100
S500        S  0.71508288  0.47067250  0.01744178    -0.33100
H501        H  0.70859290  0.49521697  0.04506911     0.28300
H502        H  0.67309317  0.30845994  0.08118198     0.28300
H503        H  0.70370407  0.39521588  0.12629451     0.18900
H504        H  0.67627660  0.40898309  0.99792590     0.18900
C505        C  0.04103124  0.27850543  0.57369990    -0.07000
C506        C  0.02178133  0.26049546  0.54685919    -0.18100
C507        C  0.03908973  0.24105998  0.52004980     0.10200
C508        C  0.07679201  0.23883665  0.51984360    -0.06900
C509        C  0.09613941  0.25653628  0.54648978    -0.18100
C510        C  0.07898110  0.27558896  0.57360767     0.10300
S511        S  0.01153752  0.22160180  0.48576547    -0.33100
S512        S  0.10766856  0.29386200  0.60762632    -0.33100
H513        H  0.08741786  0.27929723  0.63576886     0.28300
H514        H  0.03510981  0.23018085  0.45780780     0.28300
H515        H  0.99287653  0.26228574  0.54593923     0.18900
H516        H  0.12507725  0.25455840  0.54686844     0.18900
C517        C  0.08031109  0.23296041  0.36777524    -0.07000
C518        C  0.04294336  0.23532339  0.36979634    -0.18100
C519        C  0.02326071  0.25577878  0.34541332     0.10200
C520        C  0.04098861  0.27316677  0.31663137    -0.06900
C521        C  0.07845932  0.26973318  0.31418754    -0.18100
C522        C  0.09812935  0.24999767  0.33918818     0.10300
S523        S  0.97621184  0.26051704  0.35488146    -0.33100
S524        S  0.14578292  0.24668202  0.33236366    -0.33100
H525        H  0.14844479  0.21100663  0.34408229     0.28300
H526        H  0.97705559  0.29811935  0.35273276     0.28300
H527        H  0.02901735  0.22262732  0.39176014     0.18900
H528        H  0.09277038  0.28233392  0.29242140     0.18900
C529        C  0.57446183  0.28248310  0.85795629    -0.07000
C530        C  0.55989915  0.29690716  0.82665649    -0.18100
C531        C  0.53344492  0.27903052  0.80740522     0.10200
C532        C  0.52124990  0.24494036  0.81904711    -0.06900
C533        C  0.53607640  0.23048584  0.85040052    -0.18100
C534        C  0.56257460  0.24854250  0.86964655     0.10300
S535        S  0.51635339  0.30223780  0.76889345    -0.33100
S536        S  0.58127428  0.22579780  0.90769174    -0.33100
H537        H  0.61669672  0.23645323  0.90061987     0.28300
H538        H  0.48073159  0.30095336  0.78104415     0.28300
H539        H  0.56844180  0.32305597  0.81748621     0.18900
H540        H  0.52758645  0.20440590  0.85979245     0.18900
C541        C  0.37240011  0.24002026  0.81937143    -0.07000
C542        C  0.38111103  0.24987120  0.85430856    -0.18100
C543        C  0.35902461  0.27269456  0.87395366     0.10200
C544        C  0.32636708  0.28474793  0.85897976    -0.06900
C545        C  0.31764100  0.27441313  0.82402227    -0.18100
C546        C  0.34019669  0.25225722  0.80416702     0.10300
S547        S  0.37570100  0.28741303  0.91657490    -0.33100
S548        S  0.32591845  0.23973815  0.76001255    -0.33100
H549        H  0.34183471  0.20564974  0.76031095     0.28300
H550        H  0.36499412  0.32319817  0.91184377     0.28300
H551        H  0.40630000  0.24119583  0.86572531     0.18900
H552        H  0.29268340  0.28310424  0.81217772     0.18900
C553        C  0.22526337  0.09567963  0.57987702    -0.07000
C554        C  0.21404486  0.07724501  0.54912952    -0.18100
C555        C  0.19511538  0.09438523  0.52184838     0.10200
C556        C  0.18682049  0.13109692  0.52485295    -0.06900
C557        C  0.19765273  0.14965854  0.55546529    -0.18100
C558        C  0.21584310  0.13231661  0.58326627     0.10300
S559        S  0.18376545  0.06820007  0.48314131    -0.33100
S560        S  0.22396390  0.15808320  0.62299126    -0.33100
H561        H  0.21411034  0.13026201  0.64634495     0.28300
H562        H  0.19052094  0.09569223  0.45843064     0.28300
H563        H  0.22086452  0.04929636  0.54566628     0.18900
H564        H  0.19072234  0.17767037  0.55831926     0.18900
C565        C  0.37430594  0.12977011  0.71044134    -0.07000
C566        C  0.35035722  0.10701381  0.72852278    -0.18100
C567        C  0.32263238  0.08932830  0.71040661     0.10200
C568        C  0.31851724  0.09443514  0.67330053    -0.06900
C569        C  0.34247686  0.11685341  0.65527540    -0.18100
C570        C  0.37068733  0.13365742  0.67302912     0.10300
S571        S  0.29270678  0.06175885  0.73631828    -0.33100
S572        S  0.40239941  0.15756327  0.64566827    -0.33100
H573        H  0.43259321  0.14473597  0.66408543     0.28300
H574        H  0.26233148  0.06769663  0.71504876     0.28300
H575        H  0.35262149  0.10366332  0.75711420     0.18900
H576        H  0.34016678  0.12003605  0.62665000     0.18900
C577        C  0.23335818  0.90936353  0.57011258    -0.07000
C578        C  0.19802851  0.92029316  0.56389229    -0.18100
C579        C  0.17556645  0.90156286  0.54060861     0.10200
C580        C  0.18872661  0.87116670  0.52208354    -0.06900
C581        C  0.22451046  0.86088101  0.52784706    -0.18100
C582        C  0.24690652  0.87972644  0.55105663     0.10300
S583        S  0.13028801  0.91762576  0.53707370    -0.33100
S584        S  0.29301255  0.86571094  0.55340804    -0.33100
H585        H  0.30695687  0.90058374  0.55612565     0.28300
H586        H  0.11516920  0.88387512  0.54420307     0.28300
H587        H  0.18730018  0.94298338  0.57832790     0.18900
H588        H  0.23568476  0.83841580  0.51342549     0.18900
C589        C  0.52687400  0.13512978  0.71387317    -0.07000
C590        C  0.52342239  0.09815652  0.70917832    -0.18100
C591        C  0.54813684  0.07872634  0.68900591     0.10200
C592        C  0.57835860  0.09633175  0.67398402    -0.06900
C593        C  0.58211519  0.13339944  0.67961233    -0.18100
C594        C  0.55695057  0.15283730  0.69940006     0.10300
S595        S  0.53749553  0.03224990  0.68171312    -0.33100
S596        S  0.56545570  0.19983106  0.70634735    -0.33100
H597        H  0.55096751  0.20102661  0.74092931     0.28300
H598        H  0.54287911  0.03422640  0.64464302     0.28300
H599        H  0.50021104  0.08447301  0.71996991     0.18900
H600        H  0.60514524  0.14742223  0.66892979     0.18900
C601        C  0.85340071  0.27718145  0.31387930    -0.07000
C602        C  0.86623727  0.24336511  0.32413815    -0.18100
C603        C  0.84844168  0.22238955  0.34968784     0.10200
C604        C  0.81630238  0.23498541  0.36555001    -0.06900
C605        C  0.80323865  0.26854645  0.35462128    -0.18100
C606        C  0.82140610  0.28979781  0.32980125     0.10300
S607        S  0.86837398  0.17987232  0.36025800    -0.33100
S608        S  0.80306427  0.33366265  0.32180593    -0.33100
H609        H  0.83620930  0.35112340  0.32561923     0.28300
H610        H  0.87462359  0.18940737  0.39598260     0.28300
H611        H  0.89055664  0.23308771  0.31220976     0.18900
H612        H  0.77899505  0.27917754  0.36635315     0.18900
C613        C  0.81743840  0.24316367  0.51413331    -0.07000
C614        C  0.84116689  0.22580502  0.53745544    -0.18100
C615        C  0.85938457  0.24463610  0.56402245     0.10200
C616        C  0.85378667  0.28181531  0.56772585    -0.06900
C617        C  0.83087021  0.29940025  0.54394982    -0.18100
C618        C  0.81357031  0.28080063  0.51662112     0.10300
S619        S  0.88824447  0.21934103  0.59313663    -0.33100
S620        S  0.78917307  0.30715119  0.48453114    -0.33100
H621        H  0.80115045  0.28741912  0.45489799     0.28300
H622        H  0.88054654  0.23926873  0.62395474     0.28300
H623        H  0.84485036  0.19710526  0.53571793     0.18900
H624        H  0.82753629  0.32815007  0.54581921     0.18900
C625        C  0.70634073  0.13386868  0.52287173    -0.07000
C626        C  0.72455806  0.10877251  0.54419397    -0.18100
C627        C  0.70761480  0.09101705  0.57251072     0.10200
C628        C  0.67123285  0.09802988  0.58007150    -0.06900
C629        C  0.65297491  0.12313721  0.55905300    -0.18100
C630        C  0.66965299  0.14039368  0.53028690     0.10300
S631        S  0.73443960  0.06081707  0.59878160    -0.33100
S632        S  0.64160362  0.16838943  0.50297491    -0.33100
H633        H  0.65377944  0.15348371  0.47074108     0.28300
H634        H  0.71794791  0.06917999  0.63142696     0.28300
H635        H  0.75258761  0.10330574  0.53928123     0.18900
H636        H  0.62486256  0.12817532  0.56404280     0.18900
C637        C  0.66872147  0.08982034  0.31861798    -0.07000
C638        C  0.67829116  0.07296262  0.35079786    -0.18100
C639        C  0.69729005  0.09107589  0.37722754     0.10200
C640        C  0.70692443  0.12711483  0.37175437    -0.06900
C641        C  0.69826231  0.14387344  0.33949465    -0.18100
C642        C  0.68030767  0.12540846  0.31251311     0.10300
S643        S  0.70698820  0.06717229  0.41787756    -0.33100
S644        S  0.67528503  0.14818861  0.27045807    -0.33100
H645        H  0.68266363  0.11764506  0.24982344     0.28300
H646        H  0.70184090  0.09661538  0.44058117     0.28300
H647        H  0.66989636  0.04575915  0.35610579     0.18900
H648        H  0.70669934  0.17123828  0.33480624     0.18900
C649        C  0.52022728  0.86205101  0.19517890    -0.07000
C650        C  0.52300455  0.85293553  0.23145031    -0.18100
C651        C  0.54537837  0.87198492  0.25450405     0.10200
C652        C  0.56571585  0.90095805  0.24117691    -0.06900
C653        C  0.56350079  0.90967441  0.20493697    -0.18100
C654        C  0.54191304  0.89010329  0.18171708     0.10300
S655        S  0.54527285  0.85901465  0.30081327    -0.33100
S656        S  0.54521578  0.90118557  0.13507179    -0.33100
H657        H  0.54627049  0.86526967  0.12384048     0.28300
H658        H  0.54744093  0.89412886  0.31408441     0.28300
H659        H  0.50675973  0.83151583  0.24232363     0.18900
H660        H  0.57983454  0.93115577  0.19427922     0.18900
C661        C  0.31956134  0.27898117  0.04563011    -0.07000
C662        C  0.35238155  0.27090400  0.02923208    -0.18100
C663        C  0.37886934  0.25184974  0.04719842     0.10200
C664        C  0.37240615  0.23982791  0.08219879    -0.06900
C665        C  0.33961541  0.24736751  0.09863715    -0.18100
C666        C  0.31290601  0.26630022  0.08058736     0.10300
S667        S  0.42115721  0.24563277  0.02490161    -0.33100
S668        S  0.27062435  0.27178974  0.10306301    -0.33100
H669        H  0.24978750  0.26754528  0.07215038     0.28300
H670        H  0.44197354  0.25203657  0.05540368     0.28300
H671        H  0.35814817  0.28079305  0.00268478     0.18900
H672        H  0.33448458  0.23767325  0.12539863     0.18900
C673        C  0.52209275  0.24314777  0.08213983    -0.07000
C674        C  0.52720916  0.27903098  0.09230256    -0.18100
C675        C  0.55070311  0.30156692  0.07381802     0.10200
C676        C  0.57014943  0.28812171  0.04445794    -0.06900
C677        C  0.56493228  0.25252818  0.03400576    -0.18100
C678        C  0.54184641  0.22981360  0.05269663     0.10300
S679        S  0.55316957  0.34757998  0.08804151    -0.33100
S680        S  0.54061854  0.18386095  0.03828209    -0.33100
H681        H  0.54508055  0.17004949  0.07290865     0.28300
H682        H  0.55632274  0.36183687  0.05346925     0.28300
H683        H  0.51213127  0.29006652  0.11435965     0.18900
H684        H  0.58006453  0.24184215  0.01178985     0.18900
C685        C  0.52542727  0.13170124  0.18624639    -0.07000
C686        C  0.52793053  0.09460751  0.18118685    -0.18100
C687        C  0.55298555  0.07396278  0.19968709     0.10200
C688        C  0.57512950  0.09029390  0.22576915    -0.06900
C689        C  0.57334309  0.12774099  0.22971767    -0.18100
C690        C  0.54969735  0.14854066  0.20969083     0.10300
S691        S  0.55573096  0.02748326  0.18724312    -0.33100
S692        S  0.55320964  0.19645596  0.21421360    -0.33100
H693        H  0.54834145  0.20345827  0.17767099     0.28300
H694        H  0.59327886  0.02790409  0.18427820     0.28300
H695        H  0.51021214  0.08142852  0.16249362     0.18900
H696        H  0.59069229  0.14131060  0.24843495     0.18900
C697        C  0.22491309  0.09331236  0.31673678    -0.07000
C698        C  0.24339361  0.11696739  0.33906502    -0.18100
C699        C  0.22646184  0.13337025  0.36800259     0.10200
C700        C  0.18942268  0.12767418  0.37393510    -0.06900
C701        C  0.17106754  0.10365145  0.35165874    -0.18100
C702        C  0.18829832  0.08651685  0.32328281     0.10300
S703        S  0.25442590  0.15910038  0.39754060    -0.33100
S704        S  0.16166467  0.05742948  0.29562242    -0.33100
H705        H  0.17950693  0.06577492  0.26365817     0.28300
H706        H  0.23849286  0.14562308  0.42881449     0.28300
H707        H  0.27175981  0.12140734  0.33494678     0.18900
H708        H  0.14275634  0.09887108  0.35567319     0.18900
C709        C  0.37199172  0.12886390  0.18594329    -0.07000
C710        C  0.33993004  0.14661894  0.19373831    -0.18100
C711        C  0.31152703  0.12886906  0.21039240     0.10200
C712        C  0.31576957  0.09287221  0.22131104    -0.06900
C713        C  0.34766643  0.07489259  0.21256178    -0.18100
C714        C  0.37572495  0.09243976  0.19507919     0.10300
S715        S  0.27005940  0.15306964  0.21477878    -0.33100
S716        S  0.41607969  0.06733540  0.18671225    -0.33100
H717        H  0.43972543  0.09613943  0.19182247     0.28300
H718        H  0.24817604  0.12324166  0.20774865     0.28300
H719        H  0.33657321  0.17428995  0.18570751     0.18900
H720        H  0.35139519  0.04726951  0.22051352     0.18900
C721        C  0.22221412  0.90883801  0.31731440    -0.07000
C722        C  0.24121312  0.88937317  0.34293000    -0.18100
C723        C  0.22375248  0.87365222  0.37183984     0.10200
C724        C  0.18599235  0.87524626  0.37409807    -0.06900
C725        C  0.16705864  0.89572537  0.34901844    -0.18100
C726        C  0.18480368  0.91275468  0.32082706     0.10300
S727        S  0.25147382  0.85428977  0.40614734    -0.33100
S728        S  0.15815234  0.93814507  0.28975854    -0.33100
H729        H  0.17953682  0.93111585  0.25973931     0.28300
H730        H  0.22967645  0.86574131  0.43454210     0.28300
H731        H  0.27012485  0.88777171  0.34125502     0.18900
H732        H  0.13818326  0.89759400  0.35070985     0.18900
C733        C  0.31429170  0.90480552  0.22404717    -0.07000
C734        C  0.32731162  0.87275745  0.23861852    -0.18100
C735        C  0.35314175  0.85219255  0.22116713     0.10200
C736        C  0.36776033  0.86419007  0.18829950    -0.06900
C737        C  0.35450596  0.89625283  0.17364917    -0.18100
C738        C  0.32770677  0.91615052  0.19060085     0.10300
S739        S  0.36585526  0.81116539  0.24297081    -0.33100
S740        S  0.31088399  0.95469883  0.16707697    -0.33100
H741        H  0.27482464  0.94773385  0.17541234     0.28300
H742        H  0.35548366  0.78984631  0.21386555     0.28300
H743        H  0.31737148  0.86348551  0.26414842     0.18900
H744        H  0.36460255  0.90580378  0.14829786     0.18900
C745        C  0.66021697  0.90499545  0.33219476    -0.07000
C746        C  0.66784208  0.86864640  0.32618338    -0.18100
C747        C  0.69060111  0.84951435  0.34871990     0.10200
C748        C  0.70628713  0.86689051  0.37815296    -0.06900
C749        C  0.69946217  0.90323774  0.38387824    -0.18100
C750        C  0.67604435  0.92223299  0.36193550     0.10300
S751        S  0.69938355  0.80337338  0.33783119    -0.33100
S752        S  0.66558725  0.96725574  0.37554074    -0.33100
H753        H  0.62852033  0.96325772  0.37029811     0.28300
H754        H  0.73509143  0.80368027  0.34963138     0.28300
H755        H  0.65641807  0.85499933  0.30342535     0.18900
H756        H  0.71092373  0.91647290  0.40688521     0.18900
C757        C  0.81899736  0.76332958  0.52727213    -0.07000
C758        C  0.85374621  0.75278613  0.51836298    -0.18100
C759        C  0.87309238  0.72964172  0.54029791     0.10200
C760        C  0.85808850  0.71809692  0.57315445    -0.06900
C761        C  0.82344100  0.72958897  0.58228012    -0.18100
C762        C  0.80381265  0.75195006  0.55974683     0.10300
S763        S  0.91512290  0.71372129  0.52280492    -0.33100
S764        S  0.75980699  0.76552409  0.57416169    -0.33100
H765        H  0.76049507  0.79921890  0.55745134     0.28300
H766        H  0.90792936  0.67763698  0.53090974     0.28300
H767        H  0.86506402  0.76087983  0.49299556     0.18900
H768        H  0.81152675  0.72135223  0.60730228     0.18900
C769        C  0.70914409  0.87018209  0.52854033    -0.07000
C770        C  0.72704441  0.89724174  0.54760484    -0.18100
C771        C  0.70989823  0.91669499  0.57458515     0.10200
C772        C  0.67358561  0.90976797  0.58243795    -0.06900
C773        C  0.65560955  0.88304122  0.56336136    -0.18100
C774        C  0.67271657  0.86326608  0.53681636     0.10300
S775        S  0.73631222  0.94872916  0.59898919    -0.33100
S776        S  0.64563152  0.83087571  0.51373480    -0.33100
H777        H  0.66411610  0.80177923  0.52884993     0.28300
H778        H  0.72015583  0.94174525  0.63214864     0.28300
H779        H  0.75495501  0.90282472  0.54209906     0.18900
H780        H  0.62761684  0.87774357  0.56886758     0.18900
C781        C  0.81441868  0.76056861  0.37523434    -0.07000
C782        C  0.84636761  0.77487866  0.36120339    -0.18100
C783        C  0.86527831  0.75758534  0.33396407     0.10200
C784        C  0.85296995  0.72434045  0.32087009    -0.06900
C785        C  0.82106066  0.71012609  0.33459019    -0.18100
C786        C  0.80152463  0.72782136  0.36096220     0.10300
S787        S  0.90388440  0.78042061  0.31615982    -0.33100
S788        S  0.76047784  0.70645656  0.37456993    -0.33100
H789        H  0.73938313  0.73637401  0.36596619     0.28300
H790        H  0.89666104  0.77127635  0.28052120     0.28300
H791        H  0.85655539  0.80003924  0.37101578     0.18900
H792        H  0.81117837  0.68477718  0.32482367     0.18900
C793        C  0.31954298  0.72154378  0.85058280    -0.07000
C794        C  0.32905280  0.71129863  0.81584333    -0.18100
C795        C  0.35434016  0.73029377  0.79596524     0.10200
C796        C  0.37225408  0.75992889  0.81139467    -0.06900
C797        C  0.36238324  0.77051988  0.84598512    -0.16900
C798        C  0.33583112  0.75247439  0.86523840     0.10300
S799        S  0.36139615  0.71529095  0.75089370    -0.33100
S800        S  0.32310245  0.77181184  0.90734934    -0.33100
H801        H  0.28617648  0.76731862  0.90162546     0.28300
H802        H  0.35648347  0.74959678  0.73615903     0.28300
H803        H  0.31666814  0.68809248  0.80374186     0.18900
H804        H  0.37505785  0.79353195  0.85816815     0.18900
C805        C  0.52485924  0.87279964  0.70857055    -0.07000
C806        C  0.54872889  0.89432439  0.72805323    -0.18100
C807        C  0.57647078  0.91308007  0.71117555     0.10200
C808        C  0.58047732  0.91060618  0.67387501    -0.06900
C809        C  0.55643856  0.88958671  0.65434869    -0.18100
C810        C  0.52833240  0.87142801  0.67100582     0.10300
S811        S  0.60675156  0.93827448  0.73884990    -0.33100
S812        S  0.49687548  0.84886316  0.64234959    -0.33100
H813        H  0.46646662  0.85982084  0.66155996     0.28300
H814        H  0.63728292  0.93239733  0.71774124     0.28300
H815        H  0.54647711  0.89574514  0.75680118     0.18900
H816        H  0.55887314  0.88827228  0.62559227     0.18900
C817        C  0.52385412  0.76017068  0.81517859    -0.07000
C818        C  0.51549695  0.75044673  0.85025531    -0.18100
C819        C  0.53746918  0.72722438  0.86963115     0.10200
C820        C  0.56968502  0.71439011  0.85419189    -0.06900
C821        C  0.57797571  0.72446689  0.81901246    -0.18100
C822        C  0.55561465  0.74721097  0.79951320     0.10300
S823        S  0.52121737  0.71332861  0.91274548    -0.33100
S824        S  0.56978465  0.75980267  0.75528166    -0.33100
H825        H  0.55514451  0.79445075  0.75629562     0.28300
H826        H  0.53062445  0.67719044  0.90800671     0.28300
H827        H  0.49068319  0.75965478  0.86208194     0.18900
H828        H  0.60256251  0.71531236  0.80676576     0.18900
C829        C  0.37513482  0.87007132  0.70630432    -0.07000
C830        C  0.34453249  0.85193301  0.69451153    -0.18100
C831        C  0.31721211  0.86988456  0.67631403     0.10200
C832        C  0.32104864  0.90678612  0.66828577    -0.06900
C833        C  0.35168593  0.92485245  0.68050434    -0.18100
C834        C  0.37870002  0.90697329  0.69911621     0.10300
S835        S  0.27755639  0.84442729  0.66604252    -0.33100
S836        S  0.41785714  0.93242097  0.71124317    -0.33100
H837        H  0.44236444  0.90456491  0.70535254     0.28300
H838        H  0.25373462  0.87235596  0.67431386     0.28300
H839        H  0.34136247  0.82372199  0.70054851     0.18900
H840        H  0.35536594  0.95297017  0.67442631     0.18900
C841        C  0.70736598  0.57233411  0.81762276    -0.07000
C842        C  0.70030324  0.60572661  0.80210559    -0.18100
C843        C  0.68076219  0.63195837  0.82035643     0.10200
C844        C  0.66664996  0.62435497  0.85460646    -0.06900
C845        C  0.67436405  0.59102379  0.87026994    -0.18100
C846        C  0.69416522  0.56495944  0.85208480     0.10300
S847        S  0.67648550  0.67502011  0.79909722    -0.33100
S848        S  0.69990036  0.52206481  0.87333876    -0.33100
H849        H  0.69558738  0.50196397  0.84201005     0.28300
H850        H  0.67960651  0.69482008  0.83080453     0.28300
H851        H  0.71076596  0.61168477  0.77581137     0.18900
H852        H  0.66368347  0.58461167  0.89635884     0.18900
C853        C  0.81524580  0.42544169  0.70262715    -0.07000
C854        C  0.84011225  0.40264770  0.71920506    -0.18100
C855        C  0.85811402  0.37598477  0.70001394     0.10200
C856        C  0.85143274  0.37182612  0.66317720    -0.06900
C857        C  0.82646724  0.39428406  0.64663247    -0.18100
C858        C  0.80906687  0.42141814  0.66553118     0.10300
S859        S  0.88822047  0.34732260  0.72440358    -0.33100
S860        S  0.78146329  0.45141028  0.63983830    -0.33100
H861        H  0.79476777  0.48252313  0.65629218     0.28300
H862        H  0.88077663  0.31631658  0.70452700     0.28300
H863        H  0.84506796  0.40505810  0.74753802     0.18900
H864        H  0.82174261  0.39181482  0.61825337     0.18900
C865        C  0.66624037  0.37568258  0.85703408    -0.07000
C866        C  0.70326160  0.37739580  0.86261103    -0.18100
C867        C  0.72497466  0.39976990  0.84182588     0.10200
C868        C  0.70912940  0.42241714  0.81592338    -0.06900
C869        C  0.67197599  0.42053452  0.81062345    -0.18100
C870        C  0.65049825  0.39765880  0.83076338     0.10300
S871        S  0.77261596  0.39617090  0.84821277    -0.33100
S872        S  0.60297623  0.39898468  0.82243551    -0.33100
H873        H  0.59275667  0.39358899  0.85811323     0.28300
H874        H  0.78057046  0.39669999  0.81154000     0.28300
H875        H  0.71554097  0.36000457  0.88222933     0.18900
H876        H  0.65918504  0.43777813  0.79122379     0.18900
C877        C  0.85518382  0.62682457  0.66793835    -0.07000
C878        C  0.81940269  0.61968265  0.65888670    -0.18100
C879        C  0.79841783  0.59585779  0.67858232     0.10200
C880        C  0.81374719  0.57682595  0.70745951    -0.06900
C881        C  0.84920895  0.58478969  0.71722876    -0.18100
C882        C  0.86963353  0.61003358  0.69857807     0.10300
S883        S  0.75211787  0.59220778  0.66568009    -0.33100
S884        S  0.91315600  0.62040383  0.71650172    -0.33100
H885        H  0.90970076  0.65752492  0.71117284     0.28300
H886        H  0.73925567  0.59585775  0.70076112     0.28300
H887        H  0.80736658  0.63278963  0.63609610     0.18900
H888        H  0.86128440  0.57141953  0.73984568     0.18900
loop_ 
_geom_bond_atom_site_label_1 
_geom_bond_atom_site_label_2 
_geom_bond_distance 
_geom_bond_site_symmetry_2 
_ccdc_geom_bond_type 
O1           Ni9   1.913       .  S
O1           C11   1.279       .  A
O2           Ni9   1.916       .  S
O2           C12   1.282       .  A
O3           Ni9   1.928       .  S
O3           C13   1.283       .  A
O4           Ni9   1.931       .  S
O4           C14   1.285       .  A
O5          Ni10   1.909       .  S
O5           C14   1.279       .  A
O6          Ni10   1.916       .  S
O6           C13   1.279       .  A
O7          Ni10   1.912       .  S
O7           C12   1.280       .  A
O8          Ni10   1.912       .  S
O8           C11   1.282       .  A
Ni9         Ni10   2.383       .  S
C11         C868   1.484       .  S
C12         C880   1.489       .  S
C13         C841   1.476       .  S
C14         C853   1.489       .  S
O15         Ni23   1.917       .  S
O15          C25   1.281       .  A
O16         Ni23   1.920       .  S
O16          C26   1.281       .  A
O17         Ni23   1.919       .  S
O17          C27   1.282       .  A
O18         Ni23   1.918       .  S
O18          C28   1.283       .  A
O19         Ni24   1.911       .  S
O19          C28   1.279       .  A
O20         Ni24   1.912       .  S
O20          C27   1.280       .  A
O21         Ni24   1.912       .  S
O21          C26   1.280       .  A
O22         Ni24   1.916       .  S
O22          C25   1.280       .  A
Ni23        Ni24   2.386       .  S
C25         C829   1.474       .  S
C26         C817   1.473       .  S
C27         C805   1.483       .  S
C28         C796   1.490       .  S
O29         Ni37   1.911       .  S
O29          C39   1.280       .  A
O30         Ni37   1.908       .  S
O30          C40   1.279       .  A
O31         Ni37   1.908       .  S
O31          C41   1.278       .  A
O32         Ni37   1.909       .  S
O32          C42   1.278       .  A
O33         Ni38   1.924       .  S
O33          C42   1.284       .  A
O34         Ni38   1.925       .  S
O34          C41   1.284       .  A
O35         Ni38   1.915       .  S
O35          C40   1.280       .  A
O36         Ni38   1.912       .  S
O36          C39   1.280       .  A
Ni37        Ni38   2.385       .  S
C39         C748   1.469       .  S
C40         C757   1.465       .  S
C41         C769   1.491       .  S
C42         C781   1.494       .  S
C43         C721   1.468       .  S
C43          N44   1.353       .  A
C43          N48   1.357       .  A
N44          C45   1.355       .  A
C45          C51   1.462   1_565  S
C45          N46   1.359       .  A
N46          C47   1.359       .  A
C47         C733   1.488       .  S
C47          N48   1.360       .  A
C49         C712   1.483       .  S
C49          N50   1.358       .  A
C49          N54   1.361       .  A
N50          C51   1.356       .  A
C51          N52   1.356       .  A
N52          C53   1.355       .  A
C53         C697   1.477       .  S
C53          N54   1.359       .  A
O55         Ni63   1.917       .  S
O55          C65   1.280       .  A
O56         Ni63   1.911       .  S
O56          C66   1.279       .  A
O57         Ni63   1.913       .  S
O57          C67   1.281       .  A
O58         Ni63   1.913       .  S
O58          C68   1.280       .  A
O59         Ni64   1.911       .  S
O59          C68   1.279       .  A
O60         Ni64   1.913       .  S
O60          C67   1.280       .  A
O61         Ni64   1.919       .  S
O61          C66   1.283       .  A
O62         Ni64   1.914       .  S
O62          C65   1.280       .  A
Ni63        Ni64   2.388       .  S
C65         C709   1.470       .  S
C66         C673   1.489       .  S
C67         C685   1.480       .  S
C68         C664   1.465       .  S
C69         C652   1.474       .  S
C69          N70   1.359       .  A
C69          N74   1.357       .  A
N70          C71   1.356       .  A
C71          C77   1.464   1_565  S
C71          N72   1.355       .  A
N72          C73   1.355       .  A
C73         C745   1.483       .  S
C73          N74   1.358       .  A
C75         C688   1.493       .  S
C75          N76   1.359       .  A
C75          N80   1.361       .  A
N76          C77   1.357       .  A
C77          N78   1.354       .  A
N78          C79   1.355       .  A
C79         C637   1.485       .  S
C79          N80   1.357       .  A
O81         Ni89   1.913       .  S
O81          C91   1.280       .  A
O82         Ni89   1.917       .  S
O82          C92   1.282       .  A
O83         Ni89   1.925       .  S
O83          C93   1.284       .  A
O84         Ni89   1.924       .  S
O84          C94   1.281       .  A
O85         Ni90   1.918       .  S
O85          C94   1.283       .  A
O86         Ni90   1.923       .  S
O86          C93   1.282       .  A
O87         Ni90   1.911       .  S
O87          C92   1.280       .  A
O88         Ni90   1.911       .  S
O88          C91   1.279       .  A
Ni89        Ni90   2.383       .  S
C91         C640   1.467       .  S
C92         C613   1.483       .  S
C93         C625   1.497       .  S
C94         C604   1.499       .  S
C95         C808   1.475       .  S
C95          N96   1.358       .  A
C95         N100   1.356       .  A
N96          C97   1.361       .  A
C97         C103   1.471   1_565  S
C97          N98   1.360       .  A
N98          C99   1.359       .  A
C99         C772   1.479       .  S
C99         N100   1.357       .  A
C101        C628   1.486       .  S
C101        N102   1.360       .  A
C101        N106   1.362       .  A
N102        C103   1.358       .  A
C103        N104   1.356       .  A
N104        C105   1.357       .  A
C105        C592   1.493       .  S
C105        N106   1.362       .  A
C107        C832   1.487       .  S
C107        N108   1.360       .  A
C107        N112   1.358       .  A
N108        C109   1.358       .  A
C109        C117   1.471   1_565  S
C109        N110   1.359       .  A
N110        C111   1.359       .  A
C111        C577   1.483       .  S
C111        N112   1.358       .  A
C113        C553   1.496       .  S
C113        N114   1.361       .  A
C113        N118   1.360       .  A
N114        C115   1.361       .  A
C115        C568   1.478       .  S
C115        N116   1.358       .  A
N116        C117   1.359       .  A
C117        N118   1.358       .  A
O119       Ni127   1.909       .  S
O119        C129   1.280       .  A
O120       Ni127   1.906       .  S
O120        C130   1.277       .  A
O121       Ni127   1.919       .  S
O121        C131   1.281       .  A
O122       Ni127   1.915       .  S
O122        C132   1.280       .  A
O123       Ni128   1.913       .  S
O123        C132   1.280       .  A
O124       Ni128   1.916       .  S
O124        C131   1.281       .  A
O125       Ni128   1.924       .  S
O125        C130   1.284       .  A
O126       Ni128   1.930       .  S
O126        C129   1.284       .  A
Ni127      Ni128   2.386       .  S
C129        C565   1.489       .  S
C130        C532   1.492       .  S
C131        C589   1.477       .  S
C132        C541   1.469       .  S
O133       Ni141   1.912       .  S
O133        C143   1.280       .  A
O134       Ni141   1.913       .  S
O134        C144   1.281       .  A
O135       Ni141   1.923       .  S
O135        C145   1.282       .  A
O136       Ni141   1.921       .  S
O136        C146   1.282       .  A
O137       Ni142   1.922       .  S
O137        C146   1.282       .  A
O138       Ni142   1.923       .  S
O138        C145   1.282       .  A
O139       Ni142   1.922       .  S
O139        C144   1.282       .  A
O140       Ni142   1.921       .  S
O140        C143   1.283       .  A
Ni141      Ni142   2.387       .  S
C143        C700   1.487       .  S
C144        C508   1.480       .  S
C145        C556   1.481       .  S
C146        C517   1.484       .  S
C147        C529   1.481       .  S
C147        N148   1.357       .  A
C147        N152   1.356       .  A
N148        C149   1.359       .  A
C149        C155   1.467       .  S
C149        N150   1.360       .  A
N150        C151   1.358       .  A
C151        C865   1.472       .  S
C151        N152   1.355       .  A
C153        C676   1.477       .  S
C153        N154   1.357   1_554  A
C153        N158   1.357       .  A
N154        C155   1.357       .  A
C155        N156   1.357       .  A
N156        C157   1.360   1_556  A
C157        C496   1.486       .  S
C157        N158   1.358       .  A
O159       Ni167   1.908       .  S
O159        C169   1.279       .  A
O160       Ni167   1.907       .  S
O160        C170   1.278       .  A
O161       Ni167   1.912       .  S
O161        C171   1.282       .  A
O162       Ni167   1.916       .  S
O162        C172   1.281       .  A
O163       Ni168   1.918       .  S
O163        C172   1.282       .  A
O164       Ni168   1.913       .  S
O164        C171   1.280       .  A
O165       Ni168   1.917       .  S
O165        C170   1.281       .  A
O166       Ni168   1.917       .  S
O166        C169   1.281       .  A
Ni167      Ni168   2.388       .  S
C169        C493   1.470       .  S
C170        C457   1.468       .  S
C171        C481   1.484       .  S
C172        C469   1.485       .  S
C173        C820   1.487       .  S
C173        N174   1.357       .  A
C173        N178   1.362       .  A
N174        C175   1.355       .  A
C175        C183   1.469       .  S
C175        N176   1.360       .  A
N176        C177   1.360       .  A
C177        C844   1.488       .  S
C177        N178   1.361       .  A
C179        C448   1.488       .  S
C179        N180   1.357       .  A
C179        N184   1.362   1_554  A
N180        C181   1.353       .  A
C181        C484   1.469       .  S
C181        N182   1.355   1_554  A
N182        C183   1.357       .  A
C183        N184   1.363       .  A
C185        C793   1.489       .  S
C185        N186   1.355       .  A
C185        N190   1.359       .  A
N186        C187   1.357       .  A
C187        C193   1.470       .  S
C187        N188   1.359       .  A
N188        C189   1.363       .  A
C189        C433   1.495       .  S
C189        N190   1.358       .  A
C191        C421   1.491       .  S
C191        N192   1.356   1_554  A
C191        N196   1.359       .  A
N192        C193   1.358       .  A
C193        N194   1.360       .  A
N194        C195   1.361   1_556  A
C195        C412   1.484       .  S
C195        N196   1.359       .  A
O197       Ni205   1.911       .  S
O197        C207   1.278       .  A
O198       Ni205   1.911       .  S
O198        C208   1.279       .  A
O199       Ni205   1.915       .  S
O199        C209   1.281       .  A
O200       Ni205   1.914       .  S
O200        C210   1.281       .  A
O201       Ni206   1.917       .  S
O201        C210   1.280       .  A
O202       Ni206   1.911       .  S
O202        C209   1.280       .  A
O203       Ni206   1.923       .  S
O203        C208   1.283       .  A
O204       Ni206   1.923       .  S
O204        C207   1.284       .  A
Ni205      Ni206   2.381       .  S
C207        C736   1.494       .  S
C208        C445   1.493       .  S
C209        C649   1.484       .  S
C210        C424   1.473       .  S
C211        C544   1.482       .  S
C211        N212   1.357       .  A
C211        N216   1.359       .  A
N212        C213   1.355       .  A
C213        C219   1.462       .  S
C213        N214   1.355       .  A
N214        C215   1.355       .  A
C215        C400   1.490       .  S
C215        N216   1.360       .  A
C217        C661   1.478       .  S
C217        N218   1.358   1_554  A
C217        N222   1.358       .  A
N218        C219   1.355       .  A
C219        N220   1.355       .  A
N220        C221   1.356   1_556  A
C221        C385   1.477       .  S
C221        N222   1.358       .  A
C223        C616   1.474       .  S
C223        N224   1.360       .  A
C223        N228   1.357       .  A
N224        C225   1.360       .  A
C225        C856   1.479       .  S
C225        N226   1.358       .  A
N226        C227   1.358       .  A
C227        C233   1.466       .  S
C227        N228   1.356       .  A
C229        C505   1.496       .  S
C229        N230   1.356       .  A
C229        N234   1.361   1_455  A
N230        C231   1.356       .  A
C231        C373   1.473       .  S
C231        N232   1.355   1_455  A
N232        C233   1.357       .  A
C233        N234   1.360       .  A
O235       Ni243   1.920       .  S
O235        C245   1.282       .  A
O236       Ni243   1.923       .  S
O236        C246   1.283       .  A
O237       Ni243   1.913       .  S
O237        C247   1.280       .  A
O238       Ni243   1.914       .  S
O238        C248   1.281       .  A
O239       Ni244   1.914       .  S
O239        C248   1.281       .  A
O240       Ni244   1.912       .  S
O240        C247   1.280       .  A
O241       Ni244   1.914       .  S
O241        C246   1.280       .  A
O242       Ni244   1.910       .  S
O242        C245   1.280       .  A
Ni243      Ni244   2.389       .  S
C245        C376   1.484       .  S
C246        C436   1.478       .  S
C247        C361   1.466       .  S
C248        C397   1.475       .  S
C249        C760   1.483       .  S
C249        N250   1.358       .  A
C249        N254   1.353       .  A
N250        C251   1.360       .  A
C251        C877   1.489       .  S
C251        N252   1.359       .  A
N252        C253   1.358       .  A
C253        C259   1.462       .  S
C253        N254   1.353       .  A
C255        C349   1.479       .  S
C255        N256   1.359       .  A
C255        N260   1.357   1_455  A
N256        C257   1.360       .  A
C257        C364   1.478       .  S
C257        N258   1.357   1_455  A
N258        C259   1.354       .  A
C259        N260   1.357       .  A
O261       Ni269   1.922       .  S
O261        C271   1.282       .  A
O262       Ni269   1.923       .  S
O262        C272   1.282       .  A
O263       Ni269   1.918       .  S
O263        C273   1.280       .  A
O264       Ni269   1.916       .  S
O264        C274   1.280       .  A
O265       Ni270   1.917       .  S
O265        C274   1.281       .  A
O266       Ni270   1.917       .  S
O266        C273   1.283       .  A
O267       Ni270   1.909       .  S
O267        C272   1.280       .  A
O268       Ni270   1.903       .  S
O268        C271   1.279       .  A
Ni269      Ni270   2.384       .  S
C271        C724   1.477       .  S
C272        C352   1.490       .  S
C273        C580   1.494       .  S
C274        C337   1.473       .  S
C275        C784   1.483       .  S
C275        N276   1.359       .  A
C275        N280   1.357       .  A
N276        C277   1.358       .  A
C277        C460   1.487       .  S
C277        N278   1.358       .  A
N278        C279   1.355       .  A
C279        C283   1.464       .  S
C279        N280   1.357       .  A
C281        C340   1.484       .  S
C281        N282   1.356   1_455  A
C281        N286   1.360       .  A
N282        C283   1.355       .  A
C283        N284   1.357       .  A
N284        C285   1.358   1_655  A
C285        C328   1.475       .  S
C285        N286   1.360       .  A
C287        C601   1.493       .  S
C287        N288   1.358       .  A
C287        N292   1.362       .  A
N288        C289   1.357       .  A
C289        C472   1.477       .  S
C289        N290   1.358       .  A
N290        C291   1.359       .  A
C291        C297   1.474       .  S
C291        N292   1.362       .  A
C293        C520   1.498       .  S
C293        N294   1.362       .  A
C293        N298   1.359   1_455  A
N294        C295   1.361       .  A
C295        C316   1.486       .  S
C295        N296   1.359   1_455  A
N296        C297   1.359       .  A
C297        N298   1.358       .  A
O299       Ni307   1.916       .  S
O299        C309   1.280       .  A
O300       Ni307   1.919       .  S
O300        C310   1.282       .  A
O301       Ni307   1.907       .  S
O301        C311   1.280       .  A
O302       Ni307   1.909       .  S
O302        C312   1.279       .  A
O303       Ni308   1.921       .  S
O303        C312   1.283       .  A
O304       Ni308   1.918       .  S
O304        C311   1.280       .  A
O305       Ni308   1.924       .  S
O305        C310   1.282       .  A
O306       Ni308   1.927       .  S
O306        C309   1.284       .  A
Ni307      Ni308   2.380       .  S
C309        C409   1.497       .  S
C310        C313   1.495       .  S
C311        C388   1.489       .  S
C312        C325   1.483       .  S
C313        C314   1.408       .  A
C313        C318   1.420       .  A
C314        C315   1.400       .  A
C314        H323   1.084       .  S
C315        C316   1.414       .  A
C315        S319   1.803       .  S
C316        C317   1.404       .  A
C317        C318   1.404       .  A
C317        H324   1.084       .  S
C318        S320   1.802       .  S
S319        H322   1.407       .  S
S320        H321   1.408       .  S
C325        C326   1.405       .  A
C325        C330   1.418       .  A
C326        C327   1.400       .  A
C326        H335   1.084       .  S
C327        C328   1.412       .  A
C327        S331   1.803       .  S
C328        C329   1.401       .  A
C329        C330   1.398       .  A
C329        H336   1.084       .  S
C330        S332   1.804       .  S
S331        H334   1.406       .  S
S332        H333   1.408       .  S
C337        C338   1.401       .  A
C337        C342   1.411       .  A
C338        C339   1.398       .  A
C338        H347   1.084       .  S
C339        C340   1.419       .  A
C339        S343   1.804   1_455  S
C340        C341   1.406       .  A
C341        C342   1.400       .  A
C341        H348   1.084       .  S
C342        S344   1.804       .  S
S343        H346   1.408       .  S
S344        H345   1.407       .  S
C349        C350   1.404       .  A
C349        C354   1.412       .  A
C350        C351   1.400       .  A
C350        H359   1.084       .  S
C351        C352   1.418       .  A
C351        S355   1.801       .  S
C352        C353   1.409       .  A
C353        C354   1.398       .  A
C353        H360   1.084       .  S
C354        S356   1.804       .  S
S355        H358   1.407       .  S
S356        H357   1.407       .  S
C361        C362   1.400       .  A
C361        C366   1.408       .  A
C362        C363   1.397       .  A
C362        H371   1.084       .  S
C363        C364   1.417       .  A
C363        S367   1.804   1_455  S
C364        C365   1.405       .  A
C365        C366   1.397       .  A
C365        H372   1.084       .  S
C366        S368   1.803       .  S
S367        H370   1.407       .  S
S368        H369   1.407       .  S
C373        C374   1.400       .  A
C373        C378   1.412       .  A
C374        C375   1.395       .  A
C374        H383   1.084       .  S
C375        C376   1.418       .  A
C375        S379   1.803       .  S
C376        C377   1.407       .  A
C377        C378   1.402       .  A
C377        H384   1.083       .  S
C378        S380   1.804       .  S
S379        H382   1.408       .  S
S380        H381   1.407       .  S
C385        C386   1.403       .  A
C385        C390   1.412       .  A
C386        C387   1.398       .  A
C386        H395   1.084       .  S
C387        C388   1.419       .  A
C387        S391   1.800       .  S
C388        C389   1.409       .  A
C389        C390   1.396       .  A
C389        H396   1.083       .  S
C390        S392   1.804       .  S
S391        H394   1.408       .  S
S392        H393   1.407       .  S
C397        C398   1.401       .  A
C397        C402   1.410       .  A
C398        C399   1.397       .  A
C398        H407   1.083       .  S
C399        C400   1.422       .  A
C399        S403   1.803       .  S
C400        C401   1.409       .  A
C401        C402   1.398       .  A
C401        H408   1.083       .  S
C402        S404   1.804       .  S
S403        H406   1.408       .  S
S404        H405   1.407       .  S
C409        C410   1.410       .  A
C409        C414   1.421       .  A
C410        C411   1.404       .  A
C410        H419   1.083       .  S
C411        C412   1.413       .  A
C411        S415   1.803   1_554  S
C412        C413   1.402       .  A
C413        C414   1.399       .  A
C413        H420   1.084       .  S
C414        S416   1.802       .  S
S415        H418   1.407   1_556  S
S416        H417   1.408       .  S
C421        C422   1.408       .  A
C421        C426   1.422       .  A
C422        C423   1.397       .  A
C422        H431   1.083       .  S
C423        C424   1.410       .  A
C423        S427   1.804       .  S
C424        C425   1.401       .  A
C425        C426   1.401       .  A
C425        H432   1.084       .  S
C426        S428   1.801   1_554  S
S427        H430   1.407       .  S
S428        H429   1.407       .  S
C433        C434   1.409       .  A
C433        C438   1.423       .  A
C434        C435   1.399       .  A
C434        H443   1.083       .  S
C435        C436   1.410       .  A
C435        S439   1.801       .  S
C436        C437   1.401       .  A
C437        C438   1.401       .  A
C437        H444   1.084       .  S
C438        S440   1.803       .  S
S439        H442   1.406       .  S
S440        H441   1.407       .  S
C445        C446   1.410       .  A
C445        C450   1.419       .  A
C446        C447   1.403       .  A
C446        H455   1.083       .  S
C447        C448   1.414       .  A
C447        S451   1.802   1_554  S
C448        C449   1.405       .  A
C449        C450   1.395       .  A
C449        H456   1.083       .  S
C450        S452   1.803       .  S
S451        H454   1.408       .  S
S452        H453   1.408       .  S
C457        C458   1.402       .  A
C457        C462   1.407       .  A
C458        C459   1.404       .  A
C458        H467   1.083       .  S
C459        C460   1.420       .  A
C459        S463   1.810       .  S
C460        C461   1.408       .  A
C461        C462   1.394       .  A
C461        H468   1.083       .  S
C462        S464   1.804       .  S
S463        H466   1.407       .  S
S464        H465   1.405       .  S
C469        C470   1.407       .  A
C469        C474   1.416       .  A
C470        C471   1.402       .  A
C470        H479   1.084       .  S
C471        C472   1.411       .  A
C471        S475   1.803       .  S
C472        C473   1.402       .  A
C473        C474   1.398       .  A
C473        H480   1.084       .  S
C474        S476   1.804       .  S
S475        H478   1.406       .  S
S476        H477   1.407       .  S
C481        C482   1.406       .  A
C481        C486   1.419       .  A
C482        C483   1.395       .  A
C482        H491   1.083       .  S
C483        C484   1.411       .  A
C483        S487   1.805       .  S
C484        C485   1.400       .  A
C485        C486   1.399       .  A
C485        H492   1.084       .  S
C486        S488   1.802       .  S
S487        H490   1.406       .  S
S488        H489   1.408       .  S
C493        C494   1.400       .  A
C493        C498   1.410       .  A
C494        C495   1.397       .  A
C494        H503   1.084       .  S
C495        C496   1.419       .  A
C495        S499   1.803       .  S
C496        C497   1.408       .  A
C497        C498   1.397       .  A
C497        H504   1.084   1_554  S
C498        S500   1.804       .  S
S499        H502   1.407       .  S
S500        H501   1.407       .  S
C505        C506   1.410       .  A
C505        C510   1.423       .  A
C506        C507   1.400       .  A
C506        H515   1.083   1_455  S
C507        C508   1.412       .  A
C507        S511   1.803       .  S
C508        C509   1.401       .  A
C509        C510   1.399       .  A
C509        H516   1.084       .  S
C510        S512   1.803       .  S
S511        H514   1.406       .  S
S512        H513   1.408       .  S
C517        C518   1.402       .  A
C517        C522   1.413       .  A
C518        C519   1.401       .  A
C518        H527   1.083       .  S
C519        C520   1.423       .  A
C519        S523   1.803   1_455  S
C520        C521   1.410       .  A
C521        C522   1.402       .  A
C521        H528   1.083       .  S
C522        S524   1.804       .  S
S523        H526   1.408       .  S
S524        H525   1.407       .  S
C529        C530   1.403       .  A
C529        C534   1.413       .  A
C530        C531   1.396       .  A
C530        H539   1.084       .  S
C531        C532   1.421       .  A
C531        S535   1.803       .  S
C532        C533   1.409       .  A
C533        C534   1.400       .  A
C533        H540   1.083       .  S
C534        S536   1.803       .  S
S535        H538   1.408       .  S
S536        H537   1.407       .  S
C541        C542   1.401       .  A
C541        C546   1.409       .  A
C542        C543   1.398       .  A
C542        H551   1.085       .  S
C543        C544   1.418       .  A
C543        S547   1.804       .  S
C544        C545   1.407       .  A
C545        C546   1.398       .  A
C545        H552   1.084       .  S
C546        S548   1.804       .  S
S547        H550   1.408       .  S
S548        H549   1.407       .  S
C553        C554   1.409       .  A
C553        C558   1.420       .  A
C554        C555   1.400       .  A
C554        H563   1.083       .  S
C555        C556   1.412       .  A
C555        S559   1.804       .  S
C556        C557   1.403       .  A
C557        C558   1.404       .  A
C557        H564   1.084       .  S
C558        S560   1.802       .  S
S559        H562   1.406       .  S
S560        H561   1.408       .  S
C565        C566   1.408       .  A
C565        C570   1.418       .  A
C566        C567   1.405       .  A
C566        H575   1.084       .  S
C567        C568   1.414       .  A
C567        S571   1.804       .  S
C568        C569   1.399       .  A
C569        C570   1.397       .  A
C569        H576   1.084       .  S
C570        S572   1.803       .  S
S571        H574   1.406       .  S
S572        H573   1.408       .  S
C577        C578   1.402       .  A
C577        C582   1.413       .  A
C578        C579   1.400       .  A
C578        H587   1.084       .  S
C579        C580   1.421       .  A
C579        S583   1.801       .  S
C580        C581   1.409       .  A
C581        C582   1.399       .  A
C581        H588   1.083       .  S
C582        S584   1.804       .  S
S583        H586   1.407       .  S
S584        H585   1.407       .  S
C589        C590   1.399       .  A
C589        C594   1.412       .  A
C590        C591   1.398       .  A
C590        H599   1.085       .  S
C591        C592   1.423       .  A
C591        S595   1.803       .  S
C592        C593   1.409       .  A
C593        C594   1.402       .  A
C593        H600   1.084       .  S
C594        S596   1.804       .  S
S595        H598   1.408       .  S
S596        H597   1.407       .  S
C601        C602   1.406       .  A
C601        C606   1.418       .  A
C602        C603   1.405       .  A
C602        H611   1.084       .  S
C603        C604   1.421       .  A
C603        S607   1.800       .  S
C604        C605   1.407       .  A
C605        C606   1.399       .  A
C605        H612   1.083       .  S
C606        S608   1.803       .  S
S607        H610   1.408       .  S
S608        H609   1.407       .  S
C613        C614   1.405       .  A
C613        C618   1.418       .  A
C614        C615   1.399       .  A
C614        H623   1.084       .  S
C615        C616   1.413       .  A
C615        S619   1.804       .  S
C616        C617   1.401       .  A
C617        C618   1.399       .  A
C617        H624   1.084       .  S
C618        S620   1.804       .  S
S619        H622   1.406       .  S
S620        H621   1.408       .  S
C625        C626   1.409       .  A
C625        C630   1.420       .  A
C626        C627   1.403       .  A
C626        H635   1.083       .  S
C627        C628   1.414       .  A
C627        S631   1.804       .  S
C628        C629   1.403       .  A
C629        C630   1.402       .  A
C629        H636   1.084       .  S
C630        S632   1.802       .  S
S631        H634   1.407       .  S
S632        H633   1.408       .  S
C637        C638   1.408       .  A
C637        C642   1.417       .  A
C638        C639   1.396       .  A
C638        H647   1.082       .  S
C639        C640   1.409       .  A
C639        S643   1.804       .  S
C640        C641   1.401       .  A
C641        C642   1.398       .  A
C641        H648   1.084       .  S
C642        S644   1.803       .  S
S643        H646   1.406       .  S
S644        H645   1.408       .  S
C649        C650   1.407       .  A
C649        C654   1.417       .  A
C650        C651   1.399       .  A
C650        H659   1.084       .  S
C651        C652   1.413       .  A
C651        S655   1.804       .  S
C652        C653   1.401       .  A
C653        C654   1.396       .  A
C653        H660   1.084       .  S
C654        S656   1.803       .  S
S655        H658   1.407       .  S
S656        H657   1.408       .  S
C661        C662   1.405       .  A
C661        C666   1.416       .  A
C662        C663   1.394       .  A
C662        H671   1.084       .  S
C663        C664   1.409       .  A
C663        S667   1.803       .  S
C664        C665   1.401       .  A
C665        C666   1.399       .  A
C665        H672   1.084       .  S
C666        S668   1.803       .  S
S667        H670   1.406       .  S
S668        H669   1.407       .  S
C673        C674   1.408       .  A
C673        C678   1.420       .  A
C674        C675   1.399       .  A
C674        H683   1.083       .  S
C675        C676   1.413       .  A
C675        S679   1.804       .  S
C676        C677   1.401       .  A
C677        C678   1.398       .  A
C677        H684   1.084       .  S
C678        S680   1.802       .  S
S679        H682   1.407       .  S
S680        H681   1.408       .  S
C685        C686   1.403       .  A
C685        C690   1.413       .  A
C686        C687   1.398       .  A
C686        H695   1.084       .  S
C687        C688   1.421       .  A
C687        S691   1.803       .  S
C688        C689   1.409       .  A
C689        C690   1.397       .  A
C689        H696   1.083       .  S
C690        S692   1.804       .  S
S691        H694   1.408       .  S
S692        H693   1.408       .  S
C697        C698   1.401       .  A
C697        C702   1.413       .  A
C698        C699   1.399       .  A
C698        H707   1.084       .  S
C699        C700   1.418       .  A
C699        S703   1.803       .  S
C700        C701   1.407       .  A
C701        C702   1.400       .  A
C701        H708   1.083       .  S
C702        S704   1.804       .  S
S703        H706   1.408       .  S
S704        H705   1.407       .  S
C709        C710   1.401       .  A
C709        C714   1.411       .  A
C710        C711   1.398       .  A
C710        H719   1.084       .  S
C711        C712   1.415       .  A
C711        S715   1.803       .  S
C712        C713   1.408       .  A
C713        C714   1.399       .  A
C713        H720   1.084       .  S
C714        S716   1.805       .  S
S715        H718   1.408       .  S
S716        H717   1.406       .  S
C721        C722   1.399       .  A
C721        C726   1.412       .  A
C722        C723   1.395       .  A
C722        H731   1.084       .  S
C723        C724   1.415       .  A
C723        S727   1.805       .  S
C724        C725   1.405       .  A
C725        C726   1.400       .  A
C725        H732   1.083       .  S
C726        S728   1.804       .  S
S727        H730   1.408       .  S
S728        H729   1.406       .  S
C733        C734   1.404       .  A
C733        C738   1.416       .  A
C734        C735   1.398       .  A
C734        H743   1.084       .  S
C735        C736   1.421       .  A
C735        S739   1.802       .  S
C736        C737   1.408       .  A
C737        C738   1.401       .  A
C737        H744   1.083       .  S
C738        S740   1.803       .  S
S739        H742   1.408       .  S
S740        H741   1.407       .  S
C745        C746   1.407       .  A
C745        C750   1.419       .  A
C746        C747   1.397       .  A
C746        H755   1.083       .  S
C747        C748   1.410       .  A
C747        S751   1.803       .  S
C748        C749   1.399       .  A
C749        C750   1.396       .  A
C749        H756   1.084       .  S
C750        S752   1.802       .  S
S751        H754   1.407       .  S
S752        H753   1.408       .  S
C757        C758   1.398       .  A
C757        C762   1.409       .  A
C758        C759   1.396       .  A
C758        H767   1.084       .  S
C759        C760   1.421       .  A
C759        S763   1.804       .  S
C760        C761   1.407       .  A
C761        C762   1.397       .  A
C761        H768   1.083       .  S
C762        S764   1.805       .  S
S763        H766   1.408       .  S
S764        H765   1.406       .  S
C769        C770   1.409       .  A
C769        C774   1.420       .  A
C770        C771   1.402       .  A
C770        H779   1.083       .  S
C771        C772   1.412       .  A
C771        S775   1.803       .  S
C772        C773   1.401       .  A
C773        C774   1.396       .  A
C773        H780   1.084       .  S
C774        S776   1.801       .  S
S775        H778   1.407       .  S
S776        H777   1.408       .  S
C781        C782   1.410       .  A
C781        C786   1.421       .  A
C782        C783   1.401       .  A
C782        H791   1.080       .  S
C783        C784   1.414       .  A
C783        S787   1.803       .  S
C784        C785   1.403       .  A
C785        C786   1.397       .  A
C785        H792   1.081       .  S
C786        S788   1.802       .  S
S787        H790   1.407       .  S
S788        H789   1.406       .  S
C793        C794   1.405       .  A
C793        C798   1.418       .  A
C794        C795   1.397       .  A
C794        H803   1.083       .  S
C795        C796   1.418       .  A
C795        S799   1.802       .  S
C796        C797   1.407       .  A
C797        C798   1.400       .  A
C797        H804   1.084       .  S
C798        S800   1.803       .  S
S799        H802   1.408       .  S
S800        H801   1.407       .  S
C805        C806   1.407       .  A
C805        C810   1.417       .  A
C806        C807   1.402       .  A
C806        H815   1.084       .  S
C807        C808   1.411       .  A
C807        S811   1.803       .  S
C808        C809   1.401       .  A
C809        C810   1.397       .  A
C809        H816   1.084       .  S
C810        S812   1.804       .  S
S811        H814   1.406       .  S
S812        H813   1.407       .  S
C817        C818   1.400       .  A
C817        C822   1.411       .  A
C818        C819   1.399       .  A
C818        H827   1.084       .  S
C819        C820   1.420       .  A
C819        S823   1.804       .  S
C820        C821   1.407       .  A
C821        C822   1.399       .  A
C821        H828   1.083       .  S
C822        S824   1.804       .  S
S823        H826   1.408       .  S
S824        H825   1.407       .  S
C829        C830   1.402       .  A
C829        C834   1.411       .  A
C830        C831   1.400       .  A
C830        H839   1.085       .  S
C831        C832   1.419       .  A
C831        S835   1.803       .  S
C832        C833   1.407       .  A
C833        C834   1.398       .  A
C833        H840   1.084       .  S
C834        S836   1.804       .  S
S835        H838   1.407       .  S
S836        H837   1.405       .  S
C841        C842   1.402       .  A
C841        C846   1.411       .  A
C842        C843   1.402       .  A
C842        H851   1.084       .  S
C843        C844   1.418       .  A
C843        S847   1.803       .  S
C844        C845   1.407       .  A
C845        C846   1.402       .  A
C845        H852   1.084       .  S
C846        S848   1.803       .  S
S847        H850   1.407       .  S
S848        H849   1.406       .  S
C853        C854   1.406       .  A
C853        C858   1.420       .  A
C854        C855   1.403       .  A
C854        H863   1.084       .  S
C855        C856   1.414       .  A
C855        S859   1.804       .  S
C856        C857   1.401       .  A
C857        C858   1.399       .  A
C857        H864   1.084       .  S
C858        S860   1.803       .  S
S859        H862   1.407       .  S
S860        H861   1.408       .  S
C865        C866   1.401       .  A
C865        C870   1.412       .  A
C866        C867   1.401       .  A
C866        H875   1.084       .  S
C867        C868   1.419       .  A
C867        S871   1.802       .  S
C868        C869   1.405       .  A
C869        C870   1.394       .  A
C869        H876   1.084       .  S
C870        S872   1.805       .  S
S871        H874   1.408       .  S
S872        H873   1.407       .  S
C877        C878   1.406       .  A
C877        C882   1.417       .  A
C878        C879   1.397       .  A
C878        H887   1.084       .  S
C879        C880   1.417       .  A
C879        S883   1.803       .  S
C880        C881   1.407       .  A
C881        C882   1.400       .  A
C881        H888   1.084       .  S
C882        S884   1.803       .  S
S883        H886   1.408       .  S
S884        H885   1.408       .  S
