geometry optimzed in LAMMPS
_audit_creation_date              2020-12-01 
_audit_creation_method            'lammps2cif' 
_symmetry_space_group_name_H-M    'P1' 
_symmetry_Int_Tables_number       1 
_symmetry_cell_setting            triclinic 
loop_ 
_symmetry_equiv_pos_as_xyz 
  x,y,z 
_cell_length_a                    69.40025076 
_cell_length_b                    69.84699437909516 
_cell_length_c                    26.60636922721338 
_cell_angle_alpha                 90.06747187438681 
_cell_angle_beta                  89.87402809134608 
_cell_angle_gamma                 89.89875470301055 
loop_ 
_atom_site_label 
_atom_site_type_symbol 
_atom_site_fract_x 
_atom_site_fract_y 
_atom_site_fract_z 
_atom_site_charge 
In1        In  0.24144957  0.66536996  0.52066118     1.36900
C2          C  0.23992909  0.68911310  0.59907739     0.77500
O3          O  0.24913675  0.63980578  0.56726463    -0.61000
O4          O  0.27134949  0.65271176  0.52427814    -0.51900
C5          C  0.21464663  0.64237489  0.48283697     0.70100
O6          O  0.21211938  0.65177569  0.52293072    -0.46800
C7          C  0.24407672  0.69003389  0.44485431     0.74800
O8          O  0.22555024  0.67949039  0.58480583    -0.58600
O9          O  0.25690482  0.67763919  0.45368784    -0.48700
O10         O  0.25494121  0.68648802  0.57322773    -0.55000
C11         C  0.26665460  0.63965891  0.55471793     0.85000
O12         O  0.23084546  0.64487190  0.46228995    -0.56900
O13         O  0.23003173  0.68976998  0.47497703    -0.60200
In14       In  0.24615935  0.83302335  0.02151722     1.36900
C15         C  0.24763409  0.80859454  0.94479977     0.77500
O16         O  0.25717212  0.80857364  0.06763267    -0.61000
O17         O  0.22929408  0.81940694  0.08436497    -0.51900
C18         C  0.27457859  0.85452852  0.05793717     0.70100
O19         O  0.27538891  0.84679069  0.01514487    -0.46800
C20         C  0.22088598  0.85918443  0.98898541     0.74800
O21         O  0.26204089  0.81822173  0.95876325    -0.58600
O22         O  0.21817096  0.84951593  0.02839087    -0.48700
O23         O  0.23251808  0.81160487  0.97003364    -0.55000
C24         C  0.24233813  0.80743128  0.09489243     0.85000
O25         O  0.25911132  0.85151716  0.08147020    -0.56900
O26         O  0.23657951  0.85562834  0.96699341    -0.60200
In27       In  0.58568299  0.99860037  0.74002450     1.36900
C28         C  0.56271973  0.00235691  0.66095109     0.77500
O29         O  0.60911952  0.98875787  0.68857168    -0.61000
O30         O  0.59536619  0.96798057  0.73468680    -0.51900
C31         C  0.61113163  0.02256617  0.78020536     0.70100
O32         O  0.59914638  0.02774518  0.74723692    -0.46800
C33         C  0.55989921  0.99766163  0.81409869     0.74800
O34         O  0.57424768  0.01544373  0.67399327    -0.58600
O35         O  0.57210580  0.98441630  0.80791790    -0.48700
O36         O  0.56322449  0.98760670  0.68816213    -0.55000
C37         C  0.60787248  0.97139731  0.70128598     0.85000
O38         O  0.61017261  0.00510869  0.79194994    -0.56900
O39         O  0.56115233  0.01108602  0.78276690    -0.60200
In40       In  0.41783817  0.99827039  0.24253788     1.36900
C41         C  0.44403955  0.99724503  0.16985992     0.77500
O42         O  0.44062697  0.01189876  0.28964506    -0.61000
O43         O  0.42982943  0.98478642  0.31232551    -0.51900
C44         C  0.39361258  0.02558433  0.27180438     0.70100
O45         O  0.40449292  0.02744371  0.23402718    -0.46800
C46         C  0.39431356  0.97159472  0.20675176     0.74800
O47         O  0.43288524  0.01138870  0.17594592    -0.58600
O48         O  0.40385566  0.96919055  0.24662698    -0.48700
O49         O  0.44171772  0.98388058  0.20107702    -0.55000
C50         C  0.44132370  0.99840207  0.32103159     0.85000
O51         O  0.39489749  0.00961153  0.29357610    -0.56900
O52         O  0.39654510  0.98772985  0.18644359    -0.60200
In53       In  0.75281660  0.33364264  0.50701371     1.36900
C54         C  0.75255815  0.30836190  0.58172644     0.77500
O55         O  0.74068209  0.31088601  0.45697682    -0.61000
O56         O  0.76818758  0.32214369  0.43865269    -0.51900
C57         C  0.72550483  0.35749113  0.47433181     0.70100
O58         O  0.72210490  0.34420339  0.50522098    -0.46800
C59         C  0.77906780  0.35699911  0.54655242     0.74800
O60         O  0.73921377  0.32048538  0.57581608    -0.58600
O61         O  0.78199958  0.34791028  0.50613920    -0.48700
O62         O  0.76567922  0.30907063  0.54892632    -0.55000
C63         C  0.75490986  0.31055229  0.42744470     0.85000
O64         O  0.74291102  0.35874208  0.46115372    -0.56900
O65         O  0.76267562  0.35430359  0.56579657    -0.60200
In66       In  0.74702018  0.16593074  0.00633239     1.36900
C67         C  0.74825372  0.19000044  0.08396525     0.77500
O68         O  0.75931365  0.14474679  0.06088544    -0.61000
O69         O  0.77557622  0.15094829  0.99532252    -0.51900
C70         C  0.71953474  0.14231805  0.97340993     0.70100
O71         O  0.71661981  0.15408476  0.00872926    -0.46800
C72         C  0.74623563  0.19123697  0.93191291     0.74800
O73         O  0.73522329  0.17749807  0.07911236    -0.58600
O74         O  0.76057178  0.18041785  0.93937375    -0.48700
O75         O  0.76048582  0.19021249  0.04882038    -0.55000
C76         C  0.77449170  0.14166976  0.03598419     0.85000
O77         O  0.73644147  0.14254567  0.95609732    -0.56900
O78         O  0.73250162  0.18893274  0.96237387    -0.60200
In79       In  0.41539311  0.50142369  0.74916243     1.36900
C80         C  0.43738472  0.50207743  0.66711141     0.77500
O81         O  0.38933253  0.51073590  0.70594031    -0.61000
O82         O  0.40338189  0.53137673  0.75139806    -0.51900
C83         C  0.39413794  0.47375287  0.79082680     0.70100
O84         O  0.40210817  0.47178563  0.74833367    -0.46800
C85         C  0.44194056  0.50309367  0.82063788     0.74800
O86         O  0.42778220  0.48743802  0.67952632    -0.58600
O87         O  0.42818700  0.51490803  0.81784497    -0.48700
O88         O  0.43569196  0.51604737  0.69680557    -0.55000
C89         C  0.39002061  0.52789675  0.72063987     0.85000
O90         O  0.39667947  0.48992747  0.81072795    -0.56900
O91         O  0.44232284  0.49075656  0.78598252    -0.60200
In92       In  0.58311424  0.49553818  0.24897723     1.36900
C93         C  0.55674411  0.49546380  0.32132731     0.77500
O94         O  0.56150139  0.50794187  0.19645131    -0.61000
O95         O  0.57165217  0.47983540  0.18108675    -0.51900
C96         C  0.60725470  0.52157164  0.21432841     0.70100
O97         O  0.59414851  0.52576480  0.24559950    -0.46800
C98         C  0.60898769  0.47232172  0.29017256     0.74800
O99         O  0.56738469  0.50980607  0.31312143    -0.58600
O100        O  0.59850164  0.46717691  0.25372942    -0.48700
O101        O  0.55986011  0.48134772  0.29284661    -0.55000
C102        C  0.56083658  0.49353496  0.16797023     0.85000
O103        O  0.60780149  0.50421195  0.20135766    -0.56900
O104        O  0.60591170  0.48915078  0.30559333    -0.60200
In105      In  0.74059269  0.66722362  0.99359637     1.36900
C106        C  0.73950015  0.69211792  0.91883509     0.77500
O107        O  0.72644808  0.68817771  0.04433951    -0.61000
O108        O  0.75601664  0.68185740  0.05724069    -0.51900
C109        C  0.71435169  0.64346474  0.02957495     0.70100
O110        O  0.71044847  0.65558397  0.99587489    -0.46800
C111        C  0.76668616  0.64307466  0.95705719     0.74800
O112        O  0.72654743  0.67962858  0.92487152    -0.58600
O113        O  0.76931001  0.65221704  0.99748515    -0.48700
O114        O  0.75273444  0.69177663  0.95120573    -0.55000
C115        C  0.74121593  0.69114930  0.07065929     0.85000
O116        O  0.73169418  0.64334139  0.04356706    -0.56900
O117        O  0.75073583  0.64629013  0.93604211    -0.60200
In118      In  0.75338992  0.83338460  0.49464729     1.36900
C119        C  0.75403293  0.81112915  0.57543471     0.77500
O120        O  0.74503358  0.85873367  0.54078708    -0.61000
O121        O  0.72397776  0.84685611  0.49197593    -0.51900
C122        C  0.77979358  0.85573037  0.45274481     0.70100
O123        O  0.78284063  0.84686128  0.49335986    -0.46800
C124        C  0.75152988  0.80660963  0.42418241     0.74800
O125        O  0.76871459  0.82026025  0.56086905    -0.58600
O126        O  0.73778589  0.81807543  0.43247472    -0.48700
O127        O  0.73920292  0.81373564  0.54910258    -0.55000
C128        C  0.72800710  0.85945620  0.52436338     0.85000
O129        O  0.76323735  0.85324613  0.43442921    -0.56900
O130        O  0.76600258  0.80895172  0.45200491    -0.60200
In131      In  0.91762787  0.99942198  0.24011891     1.36900
C132        C  0.94476622  0.00192112  0.31026571     0.77500
O133        O  0.89856136  0.98812152  0.30107424    -0.61000
O134        O  0.90406610  0.97009975  0.23850482    -0.51900
C135        C  0.89187250  0.02601052  0.21341313     0.70100
O136        O  0.90327323  0.02813616  0.24980800    -0.46800
C137        C  0.93994270  0.99790460  0.15879827     0.74800
O138        O  0.93328016  0.01545578  0.30067185    -0.58600
O139        O  0.92909089  0.98425794  0.17156162    -0.48700
O140        O  0.94241782  0.98718028  0.28356944    -0.55000
C141        C  0.89587154  0.97208592  0.28056896     0.85000
O142        O  0.89343519  0.01011540  0.19127736    -0.56900
O143        O  0.93925005  0.01222094  0.18761897    -0.60200
In144      In  0.08594511  0.99879408  0.73967304     1.36900
C145        C  0.06305832  0.99670633  0.65938319     0.77500
O146        O  0.06162562  0.98653588  0.78494812    -0.61000
O147        O  0.07224423  0.01400000  0.80487854    -0.51900
C148        C  0.10937895  0.97258394  0.77902049     0.70100
O149        O  0.09990102  0.96967510  0.73926874    -0.46800
C150        C  0.11059410  0.02547707  0.70845722     0.74800
O151        O  0.07470047  0.98351861  0.67088187    -0.58600
O152        O  0.09747640  0.02890270  0.74011090    -0.48700
O153        O  0.06317588  0.01077182  0.68904981    -0.55000
C154        C  0.06040459  0.00075285  0.81409395     0.85000
O155        O  0.10681550  0.98888265  0.79833504    -0.56900
O156        O  0.11118288  0.00837456  0.69343526    -0.60200
In157      In  0.25719324  0.16549485  0.51177632     1.36900
C158        C  0.25755114  0.18780172  0.59281875     0.77500
O159        O  0.27056486  0.19032872  0.47237579    -0.61000
O160        O  0.24387277  0.18020458  0.44427275    -0.51900
C161        C  0.28376600  0.14207119  0.47395304     0.70100
O162        O  0.28619868  0.15117752  0.51451135    -0.46800
C163        C  0.23171820  0.13960899  0.54312678     0.74800
O164        O  0.27230812  0.17881943  0.57782282    -0.58600
O165        O  0.22744889  0.15220023  0.51081004    -0.48700
O166        O  0.24271175  0.18526766  0.56634146    -0.55000
C167        C  0.25753291  0.19206740  0.43981558     0.85000
O168        O  0.26773022  0.14499248  0.45304168    -0.56900
O169        O  0.24884473  0.14040785  0.55866795    -0.60200
In170      In  0.25352246  0.33297103  0.00942603     1.36900
C171        C  0.24974139  0.30632728  0.93872572     0.77500
O172        O  0.26343500  0.35275094  0.94865186    -0.61000
O173        O  0.28351669  0.34543923  0.00559959    -0.51900
C174        C  0.22932167  0.35987954  0.04139039     0.70100
O175        O  0.22438451  0.34706009  0.01048820    -0.46800
C176        C  0.25320766  0.31075068  0.09080259     0.74800
O177        O  0.23733651  0.31931706  0.94578877    -0.58600
O178        O  0.26812189  0.31974787  0.07707851    -0.48700
O179        O  0.26407516  0.30711060  0.96773987    -0.55000
C180        C  0.28022289  0.35481381  0.96586564     0.85000
O181        O  0.24665790  0.35894623  0.05531870    -0.56900
O182        O  0.23871728  0.31340639  0.06322270    -0.60200
In183      In  0.91412926  0.50726426  0.74323992     1.36900
C184        C  0.93895247  0.51003510  0.66750681     0.77500
O185        O  0.93677019  0.52190645  0.78849815    -0.61000
O186        O  0.93002961  0.49298900  0.80633012    -0.51900
C187        C  0.88868521  0.53083342  0.78566367     0.70100
O188        O  0.89724139  0.53492565  0.74504195    -0.46800
C189        C  0.89142998  0.48001559  0.70615330     0.74800
O190        O  0.92716605  0.52333175  0.67784296    -0.58600
O191        O  0.90201820  0.47732673  0.74409042    -0.48700
O192        O  0.93773011  0.49557064  0.69561103    -0.55000
C193        C  0.94009968  0.50760403  0.81609207     0.85000
O194        O  0.89292444  0.51463993  0.80337671    -0.56900
O195        O  0.89221718  0.49671887  0.68829555    -0.60200
In196      In  0.08242848  0.49884189  0.24271273     1.36900
C197        C  0.05824375  0.49888080  0.16506714     0.77500
O198        O  0.10701305  0.48863125  0.19473290    -0.61000
O199        O  0.09533077  0.46912985  0.24742824    -0.51900
C200        C  0.10547196  0.52630916  0.27741226     0.70100
O201        O  0.09653455  0.52778754  0.23628396    -0.46800
C202        C  0.05703819  0.49840690  0.31783207     0.74800
O203        O  0.06919875  0.51285153  0.17441199    -0.58600
O204        O  0.06863036  0.48478152  0.30963940    -0.48700
O205        O  0.05988931  0.48507028  0.19514572    -0.55000
C206        C  0.10751879  0.47199979  0.21299761     0.85000
O207        O  0.10273964  0.51071348  0.30015387    -0.56900
O208        O  0.05844874  0.51215644  0.28735632    -0.60200
C209        C  0.04445611  0.49854586  0.12282782    -0.03300
C210        C  0.03266461  0.48247193  0.11551159    -0.05900
C211        C  0.01949729  0.48194407  0.07597397    -0.21000
C212        C  0.01768166  0.49748550  0.04298239     0.24700
C213        C  0.02961004  0.51358522  0.05004527    -0.18600
C214        C  0.04283306  0.51409748  0.08972283    -0.08500
C215        C  0.00360185  0.49592741  0.00112446    -0.18800
C216        C  0.99632037  0.51106865  0.97620890    -0.23600
C217        C  0.98202273  0.50941755  0.93483749     0.26800
C218        C  0.97981885  0.52492874  0.90185654    -0.20400
C219        C  0.96629083  0.52427748  0.86309715    -0.10000
C220        C  0.95459228  0.50808292  0.85659203    -0.10600
C221        C  0.95668976  0.49255179  0.88950970    -0.03500
C222        C  0.97018033  0.49321782  0.92843629    -0.18600
H223        H  0.03360874  0.47025435  0.14040356     0.10500
H224        H  0.01059964  0.46933142  0.07129889     0.10500
H225        H  0.02912218  0.52564672  0.02468893     0.10200
H226        H  0.05185098  0.52661697  0.09434512     0.11300
H227        H  0.99894835  0.48160169  0.99126415     0.11400
H228        H  0.00100693  0.52539493  0.98597965     0.13300
H229        H  0.98863216  0.53762238  0.90605771     0.09800
H230        H  0.96496170  0.53648246  0.83827415     0.11900
H231        H  0.94770723  0.47997199  0.88559512     0.08500
H232        H  0.97087843  0.48118486  0.95384872     0.11300
C233        C  0.04305074  0.49837958  0.35984626    -0.03300
C234        C  0.04195697  0.48271679  0.39269990    -0.05900
C235        C  0.02887104  0.48280410  0.43273778    -0.21000
C236        C  0.01670425  0.49858938  0.44110414     0.24700
C237        C  0.01764824  0.51420156  0.40775517    -0.18600
C238        C  0.03071909  0.51408601  0.36763415    -0.08500
C239        C  0.00284217  0.49779940  0.48380940    -0.18800
C240        C  0.99455685  0.51334675  0.50496588    -0.23600
C241        C  0.98051073  0.51224591  0.54724373     0.26800
C242        C  0.96754995  0.52747497  0.55483233    -0.20400
C243        C  0.95396820  0.52686808  0.59382945    -0.10000
C244        C  0.95320703  0.51104757  0.62622902    -0.10600
C245        C  0.96640655  0.49599690  0.61931210    -0.03500
C246        C  0.97996453  0.49660603  0.58050473    -0.18600
H247        H  0.05123488  0.47038379  0.38749359     0.10500
H248        H  0.02833437  0.47051684  0.45750620     0.10500
H249        H  0.00813272  0.52638055  0.41171259     0.10200
H250        H  0.03113598  0.52629091  0.34259768     0.11300
H251        H  0.99949226  0.48368084  0.49827425     0.11400
H252        H  0.99777622  0.52748426  0.49044409     0.13300
H253        H  0.96779285  0.53978745  0.53012796     0.09800
H254        H  0.94404153  0.53872270  0.59851394     0.11900
H255        H  0.96634148  0.48372884  0.64416352     0.08500
H256        H  0.99012665  0.48491444  0.57741647     0.11300
C257        C  0.12111185  0.45716458  0.19471481    -0.03300
C258        C  0.12020604  0.43825444  0.21258654    -0.05900
C259        C  0.13270469  0.42421706  0.19349426    -0.21000
C260        C  0.14651886  0.42888972  0.15687497     0.24700
C261        C  0.14738745  0.44781169  0.13905697    -0.18600
C262        C  0.13482339  0.46176325  0.15777280    -0.08500
C263        C  0.15935538  0.41371034  0.13638032    -0.18800
C264        C  0.17737903  0.41736175  0.12021056    -0.23600
C265        C  0.19034490  0.40236961  0.09969586     0.26800
C266        C  0.21020686  0.40376787  0.10848944    -0.20400
C267        C  0.22286325  0.38994290  0.08952300    -0.10000
C268        C  0.21592128  0.37467097  0.06037920    -0.10600
C269        C  0.19609021  0.37351814  0.05040880    -0.03500
C270        C  0.18337703  0.38719702  0.07010796    -0.18600
H271        H  0.10970322  0.43427511  0.24083625     0.10500
H272        H  0.13165214  0.40969818  0.20751085     0.10500
H273        H  0.15746006  0.45179310  0.10979284     0.10200
H274        H  0.13574158  0.47616617  0.14292485     0.11300
H275        H  0.15415169  0.39904874  0.13672997     0.11400
H276        H  0.18331170  0.43163529  0.12480266     0.13300
H277        H  0.21590975  0.41545237  0.13073034     0.09800
H278        H  0.23809405  0.39122965  0.09759147     0.11900
H279        H  0.19038778  0.36194746  0.02779378     0.08500
H280        H  0.16818108  0.38605540  0.06157943     0.11300
C281        C  0.25257491  0.29775370  0.13469218    -0.03300
C282        C  0.23506975  0.28925796  0.14885036    -0.05900
C283        C  0.23440024  0.27598398  0.18800514    -0.21000
C284        C  0.25117117  0.27077206  0.21410396     0.24700
C285        C  0.26871268  0.27962736  0.20058451    -0.18600
C286        C  0.26934442  0.29302452  0.16136479    -0.08500
C287        C  0.24939485  0.25587679  0.25413267    -0.18800
C288        C  0.26398294  0.24947295  0.28304540    -0.23600
C289        C  0.26157225  0.23464491  0.32290073     0.26800
C290        C  0.27543181  0.23355766  0.36110842    -0.20400
C291        C  0.27394590  0.21984980  0.39913007    -0.10000
C292        C  0.25858993  0.20675975  0.39977865    -0.10600
C293        C  0.24476088  0.20764483  0.36142816    -0.03500
C294        C  0.24626258  0.22137076  0.32319959    -0.18600
H295        H  0.22186555  0.29267027  0.12915829     0.10500
H296        H  0.22066807  0.26955163  0.19748952     0.10500
H297        H  0.28205548  0.27622238  0.21931249     0.10200
H298        H  0.28303356  0.29938259  0.15122382     0.11300
H299        H  0.23507654  0.25016498  0.26041570     0.11400
H300        H  0.27819666  0.25566029  0.27918537     0.13300
H301        H  0.28745211  0.24343789  0.36171372     0.09800
H302        H  0.28489860  0.21947695  0.42804180     0.11900
H303        H  0.23291028  0.19757971  0.36064026     0.08500
H304        H  0.23561082  0.22121045  0.29363663     0.11300
C305        C  0.24775339  0.29143925  0.89959849    -0.03300
C306        C  0.23298192  0.29255539  0.86374579    -0.05900
C307        C  0.23147651  0.27870401  0.82593810    -0.21000
C308        C  0.24475763  0.26355297  0.82302479     0.24700
C309        C  0.25918926  0.26212985  0.85993694    -0.18600
C310        C  0.26071957  0.27599894  0.89762867    -0.08500
C311        C  0.24305200  0.24944468  0.78137553    -0.18800
C312        C  0.25830639  0.23970433  0.76286976    -0.23600
C313        C  0.25745190  0.22600060  0.71994298     0.26800
C314        C  0.27488412  0.21963680  0.69864828    -0.20400
C315        C  0.27497099  0.20695391  0.65793265    -0.10000
C316        C  0.25758004  0.20045692  0.63734642    -0.10600
C317        C  0.24012602  0.20647807  0.65901440    -0.03500
C318        C  0.24002156  0.21898573  0.70011610    -0.18600
H319        H  0.22273073  0.30425965  0.86456535     0.10500
H320        H  0.22010057  0.28001663  0.79832361     0.10500
H321        H  0.26922595  0.25026585  0.86016514     0.10200
H322        H  0.27205439  0.27461799  0.92531402     0.11300
H323        H  0.22904135  0.24810097  0.76384194     0.11400
H324        H  0.27247268  0.24250964  0.77842650     0.13300
H325        H  0.28853634  0.22463962  0.71329241     0.09800
H326        H  0.28863581  0.20251264  0.64197140     0.11900
H327        H  0.22651082  0.20145411  0.64423055     0.08500
H328        H  0.22624355  0.22293938  0.71600932     0.11300
C329        C  0.12396106  0.04027414  0.68966914    -0.03300
C330        C  0.12064807  0.05971746  0.70004665    -0.05900
C331        C  0.13274508  0.07376341  0.67987478    -0.21000
C332        C  0.14857944  0.06864412  0.64979172     0.24700
C333        C  0.15198374  0.04913254  0.63978978    -0.18600
C334        C  0.13977238  0.03511190  0.65951619    -0.08500
C335        C  0.16089734  0.08398072  0.62823160    -0.18800
C336        C  0.17973237  0.08141623  0.61805108    -0.23600
C337        C  0.19246475  0.09681897  0.59867730     0.26800
C338        C  0.21212924  0.09609167  0.61041305    -0.20400
C339        C  0.22473997  0.11008809  0.59258025    -0.10000
C340        C  0.21803618  0.12498684  0.56174695    -0.10600
C341        C  0.19837742  0.12565719  0.54934972    -0.03500
C342        C  0.18566246  0.11172187  0.56776534    -0.18600
H343        H  0.10850230  0.06409009  0.72298329     0.10500
H344        H  0.12976192  0.08868718  0.68790859     0.10500
H345        H  0.16374791  0.04466339  0.61572764     0.10200
H346        H  0.14259766  0.02021962  0.65073406     0.11300
H347        H  0.15453324  0.09808291  0.62363259     0.11400
H348        H  0.18649635  0.06785917  0.62747449     0.13300
H349        H  0.21774734  0.08471166  0.63385980     0.09800
H350        H  0.23981777  0.10915068  0.60268539     0.11900
H351        H  0.19284374  0.13694464  0.52550589     0.08500
H352        H  0.17065629  0.11244109  0.55698314     0.11300
C353        C  0.95250819  0.99727867  0.11397601    -0.03300
C354        C  0.95273293  0.98119742  0.08230277    -0.05900
C355        C  0.96480155  0.98070325  0.04013382    -0.21000
C356        C  0.97699703  0.99617227  0.02905603     0.24700
C357        C  0.97645878  0.01242757  0.06038057    -0.18600
C358        C  0.96441270  0.01290699  0.10247998    -0.08500
C359        C  0.98981908  0.99488008  0.98429868    -0.18800
C360        C  0.00607674  0.00524797  0.97912800    -0.23600
C361        C  0.01945367  0.00374040  0.93553389     0.26800
C362        C  0.03282216  0.01852350  0.92778629    -0.20400
C363        C  0.04606646  0.01760145  0.88822757    -0.10000
C364        C  0.04631174  0.00178100  0.85568723    -0.10600
C365        C  0.03308836  0.98688065  0.86349828    -0.03500
C366        C  0.01980658  0.98780202  0.90304381    -0.18600
H367        H  0.94361642  0.96898707  0.09016645     0.10500
H368        H  0.96478351  0.96809122  0.01640335     0.10500
H369        H  0.98503695  0.02496175  0.05233609     0.10200
H370        H  0.96437858  0.02557227  0.12598584     0.11300
H371        H  0.98583032  0.98463293  0.95553778     0.11400
H372        H  0.01004553  0.01536107  0.00825163     0.13300
H373        H  0.03301091  0.03087472  0.95244801     0.09800
H374        H  0.05617107  0.02924967  0.88324825     0.11900
H375        H  0.03308588  0.97443250  0.83920285     0.08500
H376        H  0.01022848  0.97579504  0.90839376     0.11300
C377        C  0.05023434  0.99586758  0.61510676    -0.03300
C378        C  0.05055643  0.98004604  0.58254879    -0.05900
C379        C  0.03808133  0.97924179  0.54133475    -0.21000
C380        C  0.02511697  0.99425982  0.53159160     0.24700
C381        C  0.02482859  0.01010898  0.56435972    -0.18600
C382        C  0.03730610  0.01090738  0.60547084    -0.08500
C383        C  0.01152399  0.99233293  0.48864027    -0.18800
C384        C  0.00213591  0.00721636  0.46752830    -0.23600
C385        C  0.98773298  0.00531416  0.42638081     0.26800
C386        C  0.97529878  0.02079551  0.41701020    -0.20400
C387        C  0.96138009  0.01973043  0.37922325    -0.10000
C388        C  0.95964768  0.00316119  0.34973597    -0.10600
C389        C  0.97218949  0.98773254  0.35847752    -0.03500
C390        C  0.98614344  0.98879245  0.39622608    -0.18600
H391        H  0.06035462  0.96822954  0.58912312     0.10500
H392        H  0.03851814  0.96679695  0.51702382     0.10500
H393        H  0.01469881  0.02172393  0.55949939     0.10200
H394        H  0.03664281  0.02322544  0.63016893     0.11300
H395        H  0.00919456  0.97796236  0.47458046     0.11400
H396        H  0.00469200  0.02157798  0.48146544     0.13300
H397        H  0.97623378  0.03373383  0.43935649     0.09800
H398        H  0.95192019  0.03186182  0.37323248     0.11900
H399        H  0.97125283  0.97483067  0.33601297     0.08500
H400        H  0.99570896  0.97671179  0.40087027     0.11300
C401        C  0.79432299  0.86797016  0.42802951    -0.03300
C402        C  0.78991546  0.87704425  0.38240429    -0.05900
C403        C  0.80353340  0.88853580  0.35834992    -0.21000
C404        C  0.82177427  0.89139869  0.37958506     0.24700
C405        C  0.82631194  0.88214606  0.42507622    -0.18600
C406        C  0.81267612  0.87054373  0.44908385    -0.08500
C407        C  0.83561278  0.90403642  0.35293540    -0.18800
C408        C  0.84934974  0.91409669  0.37678047    -0.23600
C409        C  0.86157913  0.92846070  0.35094361     0.26800
C410        C  0.86784912  0.94443895  0.37827190    -0.20400
C411        C  0.87887900  0.95863095  0.35517111    -0.10000
C412        C  0.88420945  0.95694206  0.30443047    -0.10600
C413        C  0.87839911  0.94071129  0.27722735    -0.03500
C414        C  0.86709266  0.92660534  0.30019985    -0.18600
H415        H  0.77590894  0.87525149  0.36517456     0.10500
H416        H  0.79971181  0.89541619  0.32328805     0.10500
H417        H  0.84041966  0.88360079  0.44185126     0.10200
H418        H  0.81650373  0.86355290  0.48397811     0.11300
H419        H  0.83326390  0.90642446  0.31308654     0.11400
H420        H  0.85047173  0.91321090  0.41739920     0.13300
H421        H  0.86390059  0.94611973  0.41744269     0.09800
H422        H  0.88331387  0.97091210  0.37714809     0.11900
H423        H  0.88245965  0.93900838  0.23814903     0.08500
H424        H  0.86289542  0.91421021  0.27840954     0.11300
C425        C  0.87500208  0.54387980  0.81125582    -0.03300
C426        C  0.86722940  0.53886741  0.85826603    -0.05900
C427        C  0.85457727  0.55122209  0.88332879    -0.21000
C428        C  0.84918935  0.56870642  0.86165410     0.24700
C429        C  0.85708979  0.57382805  0.81474830    -0.18600
C430        C  0.86988065  0.56151807  0.78982619    -0.08500
C431        C  0.83554967  0.58138203  0.88915825    -0.18800
C432        C  0.82307717  0.59295540  0.86523655    -0.23600
C433        C  0.80862897  0.60514419  0.89129943     0.26800
C434        C  0.79184428  0.61017241  0.86520376    -0.20400
C435        C  0.77814202  0.62223025  0.88706340    -0.10000
C436        C  0.78105553  0.62979737  0.93533635    -0.10600
C437        C  0.79783395  0.62480252  0.96175307    -0.03500
C438        C  0.81150927  0.61251811  0.94000312    -0.18600
H439        H  0.87101598  0.52541048  0.87587791     0.10500
H440        H  0.84879968  0.54700818  0.91951784     0.10500
H441        H  0.85367535  0.58745565  0.79761073     0.10200
H442        H  0.87581132  0.56582778  0.75390322     0.11300
H443        H  0.83486661  0.58011047  0.92979951     0.11400
H444        H  0.82256820  0.59266698  0.82444478     0.13300
H445        H  0.78932523  0.60475251  0.82762514     0.09800
H446        H  0.76536544  0.62585895  0.86577013     0.11900
H447        H  0.80043921  0.63049636  0.99899646     0.08500
H448        H  0.82449108  0.60926763  0.96078877     0.11300
C449        C  0.75097346  0.79166531  0.38507587    -0.03300
C450        C  0.76648003  0.77890634  0.37981184    -0.05900
C451        C  0.76628976  0.76487284  0.34250726    -0.21000
C452        C  0.75065386  0.76325796  0.30943132     0.24700
C453        C  0.73499718  0.77603770  0.31501178    -0.18600
C454        C  0.73519802  0.79007753  0.35252535    -0.08500
C455        C  0.75161682  0.74813326  0.26998733    -0.18800
C456        C  0.73829394  0.74562116  0.23392055    -0.23600
C457        C  0.73970506  0.73083986  0.19391079     0.26800
C458        C  0.72289236  0.72615070  0.16755550    -0.20400
C459        C  0.72345558  0.71313190  0.12788348    -0.10000
C460        C  0.74089333  0.70449791  0.11353921    -0.10600
C461        C  0.75776836  0.70896224  0.13996517    -0.03500
C462        C  0.75723336  0.72209518  0.17971059    -0.18600
H463        H  0.77883101  0.77978683  0.40450708     0.10500
H464        H  0.77852571  0.75528678  0.33932707     0.10500
H465        H  0.72250742  0.77545088  0.29100708     0.10200
H466        H  0.72304767  0.79975432  0.35589230     0.11300
H467        H  0.76398222  0.73863540  0.27113871     0.11400
H468        H  0.72551961  0.75451447  0.23325394     0.13300
H469        H  0.70923637  0.73269509  0.17749730     0.09800
H470        H  0.71020228  0.70991604  0.10820291     0.11900
H471        H  0.77141322  0.70255716  0.12937347     0.08500
H472        H  0.77064940  0.72565766  0.19797176     0.11300
C473        C  0.73952213  0.70595522  0.87710557    -0.03300
C474        C  0.72486209  0.70593932  0.84093239    -0.05900
C475        C  0.72546450  0.71882461  0.80077365    -0.21000
C476        C  0.74069228  0.73197202  0.79598625     0.24700
C477        C  0.75522125  0.73205672  0.83288820    -0.18600
C478        C  0.75461439  0.71917718  0.87282774    -0.08500
C479        C  0.74060520  0.74529835  0.75232168    -0.18800
C480        C  0.75443748  0.75837394  0.74276478    -0.23600
C481        C  0.75385691  0.77192209  0.69975503     0.26800
C482        C  0.77091843  0.78134595  0.68570948    -0.20400
C483        C  0.77103469  0.79431618  0.64570137    -0.10000
C484        C  0.75404006  0.79812549  0.61906012    -0.10600
C485        C  0.73690668  0.78901666  0.63361730    -0.03500
C486        C  0.73675396  0.77615017  0.67366266    -0.18600
H487        H  0.71302172  0.69590362  0.84347706     0.10500
H488        H  0.71399883  0.71846656  0.77322521     0.10500
H489        H  0.76716903  0.74189538  0.83175959     0.10200
H490        H  0.76608235  0.71952987  0.90035427     0.11300
H491        H  0.72857990  0.74394471  0.72667134     0.11400
H492        H  0.76705372  0.75922117  0.76642369     0.13300
H493        H  0.78424969  0.77855441  0.70552572     0.09800
H494        H  0.78442925  0.80120635  0.63532971     0.11900
H495        H  0.72354364  0.79184908  0.61401923     0.08500
H496        H  0.72311326  0.76988291  0.68418614     0.11300
C497        C  0.62102879  0.53561119  0.19417291    -0.03300
C498        C  0.63699633  0.52920041  0.16637502    -0.05900
C499        C  0.65019799  0.54222577  0.14684668    -0.21000
C500        C  0.64752681  0.56192795  0.15387993     0.24700
C501        C  0.63160769  0.56842125  0.18203497    -0.18600
C502        C  0.61846374  0.55532095  0.20213879    -0.08500
C503        C  0.66201575  0.57512603  0.13257971    -0.18800
C504        C  0.65790888  0.59312574  0.11824242    -0.23600
C505        C  0.67257872  0.60591134  0.09568702     0.26800
C506        C  0.66664923  0.62064407  0.06335969    -0.20400
C507        C  0.68021078  0.63281564  0.04124410    -0.10000
C508        C  0.69990206  0.63054894  0.05166561    -0.10600
C509        C  0.70579292  0.61606379  0.08473525    -0.03500
C510        C  0.69229816  0.60389725  0.10664106    -0.18600
H511        H  0.63937080  0.51405951  0.15993483     0.10500
H512        H  0.66244544  0.53690142  0.12570391     0.10500
H513        H  0.62945721  0.58352393  0.18930353     0.10200
H514        H  0.60630189  0.56058054  0.22368939     0.11300
H515        H  0.67626730  0.56928044  0.12548607     0.11400
H516        H  0.64317301  0.59831430  0.12044507     0.13300
H517        H  0.65151758  0.62261443  0.05485106     0.09800
H518        H  0.67530019  0.64405082  0.01631993     0.11900
H519        H  0.72087590  0.61416523  0.09388814     0.08500
H520        H  0.69738458  0.59319255  0.13281059     0.11300
C521        C  0.38288569  0.45847861  0.81599922    -0.03300
C522        C  0.37776692  0.46038524  0.86691770    -0.05900
C523        C  0.36700333  0.44618647  0.89110254    -0.21000
C524        C  0.36077653  0.42992501  0.86477315     0.24700
C525        C  0.36625224  0.42778904  0.81403113    -0.18600
C526        C  0.37724530  0.44191563  0.78996628    -0.08500
C527        C  0.34858534  0.41559285  0.89139866    -0.18800
C528        C  0.33530043  0.40482372  0.86772457    -0.23600
C529        C  0.32160788  0.39190372  0.89425702     0.26800
C530        C  0.30364568  0.38830894  0.87209032    -0.20400
C531        C  0.29025606  0.37631860  0.89547934    -0.10000
C532        C  0.29463262  0.36736382  0.94132225    -0.10600
C533        C  0.31270976  0.37069809  0.96333751    -0.03500
C534        C  0.32608012  0.38288402  0.94010946    -0.18600
H535        H  0.38211016  0.47288256  0.88816707     0.10500
H536        H  0.36318416  0.44811067  0.93028517     0.10500
H537        H  0.36222227  0.41517188  0.79293751     0.10200
H538        H  0.38117274  0.43996952  0.75087854     0.11300
H539        H  0.34941689  0.41516650  0.93213117     0.11400
H540        H  0.33321617  0.40668265  0.82759629     0.13300
H541        H  0.29986035  0.39499210  0.83673077     0.09800
H542        H  0.27645427  0.37403027  0.87753752     0.11900
H543        H  0.31649142  0.36392430  0.99855727     0.08500
H544        H  0.33996094  0.38496122  0.95770362     0.11300
C545        C  0.54826670  0.49299453  0.12321024    -0.03300
C546        C  0.54747664  0.47675310  0.09218897    -0.05900
C547        C  0.53522553  0.47640499  0.05043428    -0.21000
C548        C  0.52346283  0.49221526  0.03904091     0.24700
C549        C  0.52464438  0.50863538  0.06960859    -0.18600
C550        C  0.53682892  0.50895467  0.11127871    -0.08500
C551        C  0.51067785  0.49128258  0.99421683    -0.18800
C552        C  0.49504666  0.50258392  0.98829082    -0.23600
C553        C  0.48206378  0.50241694  0.94369773     0.26800
C554        C  0.46676423  0.51562745  0.94258404    -0.20400
C555        C  0.45396640  0.51611390  0.90216149    -0.10000
C556        C  0.45611749  0.50331736  0.86189897    -0.10600
C557        C  0.47146259  0.49019871  0.86245635    -0.03500
C558        C  0.48433325  0.48973463  0.90282768    -0.18600
H559        H  0.55625480  0.46430420  0.10030683     0.10500
H560        H  0.53481110  0.46367293  0.02718249     0.10500
H561        H  0.51650416  0.52144282  0.06123925     0.10200
H562        H  0.53733134  0.52178247  0.13413608     0.11300
H563        H  0.51425331  0.48060278  0.96620144     0.11400
H564        H  0.49122656  0.51251360  0.01805035     0.13300
H565        H  0.46462222  0.52560245  0.97330885     0.09800
H566        H  0.44222009  0.52634381  0.90278584     0.11900
H567        H  0.47342574  0.48014667  0.83184070     0.08500
H568        H  0.49580036  0.47929447  0.90151405     0.11300
C569        C  0.44973927  0.50303332  0.62183469    -0.03300
C570        C  0.45894994  0.52027637  0.60922660    -0.05900
C571        C  0.47098994  0.52133023  0.56721824    -0.21000
C572        C  0.47431900  0.50515138  0.53717977     0.24700
C573        C  0.46472173  0.48795584  0.54905637    -0.18600
C574        C  0.45257671  0.48692981  0.59108376    -0.08500
C575        C  0.48798576  0.50688496  0.49430628    -0.18800
C576        C  0.49772535  0.49191984  0.47487777    -0.23600
C577        C  0.51252506  0.49371367  0.43474534     0.26800
C578        C  0.51668909  0.47757630  0.40527807    -0.20400
C579        C  0.53102441  0.47823669  0.36848093    -0.10000
C580        C  0.54169461  0.49503623  0.36063917    -0.10600
C581        C  0.53771131  0.51121168  0.39028898    -0.03500
C582        C  0.52325409  0.51058523  0.42706909    -0.18600
H583        H  0.45693116  0.53297658  0.63203140     0.10500
H584        H  0.47804817  0.53477858  0.55872740     0.10500
H585        H  0.46636691  0.47532211  0.52593388     0.10200
H586        H  0.44549008  0.47351674  0.59966652     0.11300
H587        H  0.49072624  0.52117506  0.48003156     0.11400
H588        H  0.49500205  0.47761531  0.48900720     0.13300
H589        H  0.50878226  0.46436969  0.41072366     0.09800
H590        H  0.53380686  0.46552670  0.34626001     0.11900
H591        H  0.54581706  0.52431047  0.38519591     0.08500
H592        H  0.52091307  0.52314594  0.45007653     0.11300
C593        C  0.78972347  0.12837314  0.05346720    -0.03300
C594        C  0.80532164  0.12353701  0.02221123    -0.05900
C595        C  0.81963361  0.11092017  0.03899808    -0.21000
C596        C  0.81882043  0.10307624  0.08756770     0.24700
C597        C  0.80315833  0.10791204  0.11882591    -0.18600
C598        C  0.78877162  0.12039071  0.10187719    -0.08500
C599        C  0.83378690  0.08895754  0.10301392    -0.18800
C600        C  0.83823537  0.08509209  0.15127983    -0.23600
C601        C  0.85228800  0.06998930  0.16592122     0.26800
C602        C  0.86266293  0.07196051  0.21087769    -0.20400
C603        C  0.87555717  0.05769785  0.22632013    -0.10000
C604        C  0.87805963  0.04099412  0.19754418    -0.10600
C605        C  0.86745387  0.03886065  0.15298700    -0.03500
C606        C  0.85474304  0.05321538  0.13724144    -0.18600
H607        H  0.80638105  0.12938358  0.98462828     0.10500
H608        H  0.83139859  0.10726492  0.01392335     0.10500
H609        H  0.80166267  0.10172987  0.15588012     0.10200
H610        H  0.77685259  0.12376676  0.12670589     0.11300
H611        H  0.84170002  0.08173137  0.07325070     0.11400
H612        H  0.83183373  0.09356849  0.18120388     0.13300
H613        H  0.86087872  0.08463747  0.23392483     0.09800
H614        H  0.88350857  0.05970410  0.26090974     0.11900
H615        H  0.86902222  0.02609875  0.13017629     0.08500
H616        H  0.84655242  0.05094427  0.10319170     0.11300
C617        C  0.87929200  0.46487231  0.68366149    -0.03300
C618        C  0.87012717  0.46806624  0.63739791    -0.05900
C619        C  0.85890101  0.45377125  0.61528981    -0.21000
C620        C  0.85630214  0.43608195  0.63925303     0.24700
C621        C  0.86558708  0.43279088  0.68547346    -0.18600
C622        C  0.87702314  0.44705210  0.70736304    -0.08500
C623        C  0.84411531  0.42137017  0.61439821    -0.18800
C624        C  0.83402051  0.40811929  0.63998073    -0.23600
C625        C  0.82045143  0.39468097  0.61516375     0.26800
C626        C  0.80379882  0.38908355  0.64116149    -0.20400
C627        C  0.79038273  0.37690752  0.61866251    -0.10000
C628        C  0.79352426  0.36973043  0.56997843    -0.10600
C629        C  0.81047646  0.37484466  0.54437037    -0.03500
C630        C  0.82379626  0.38729379  0.56665075    -0.18600
H631        H  0.87175099  0.48159767  0.61802437     0.10500
H632        H  0.85203814  0.45662274  0.57953461     0.10500
H633        H  0.86432419  0.41913925  0.70435938     0.10200
H634        H  0.88408464  0.44414191  0.74280773     0.11300
H635        H  0.84220071  0.42248270  0.57399588     0.11400
H636        H  0.83433136  0.40820568  0.68077876     0.13300
H637        H  0.80097609  0.39445034  0.67867693     0.09800
H638        H  0.77753114  0.37308033  0.63948771     0.11900
H639        H  0.81334153  0.36937222  0.50699372     0.08500
H640        H  0.83675722  0.39095485  0.54613064     0.11300
C641        C  0.71036710  0.37033933  0.45440673    -0.03300
C642        C  0.69080434  0.36650737  0.46338930    -0.05900
C643        C  0.67649032  0.37818022  0.44254637    -0.21000
C644        C  0.68143694  0.39411026  0.41313046     0.24700
C645        C  0.70104156  0.39802797  0.40441711    -0.18600
C646        C  0.71534356  0.38621804  0.42473153    -0.08500
C647        C  0.66587305  0.40579819  0.39008726    -0.18800
C648        C  0.66778292  0.42462388  0.38044830    -0.23600
C649        C  0.65229718  0.43637130  0.35733813     0.26800
C650        C  0.65111047  0.45588936  0.36943135    -0.20400
C651        C  0.63692280  0.46747621  0.34788708    -0.10000
C652        C  0.62383421  0.45986275  0.31299454    -0.10600
C653        C  0.62522413  0.44040853  0.30003265    -0.03500
C654        C  0.63927570  0.42873335  0.32215571    -0.18600
H655        H  0.68655312  0.35429036  0.48583019     0.10500
H656        H  0.66149757  0.37477768  0.44946659     0.10500
H657        H  0.70536922  0.40988080  0.38082124     0.10200
H658        H  0.73030778  0.38942883  0.41686627     0.11300
H659        H  0.65215119  0.39885544  0.38303872     0.11400
H660        H  0.68077973  0.43198109  0.39227808     0.13300
H661        H  0.66109424  0.46215181  0.39597768     0.09800
H662        H  0.63630249  0.48246596  0.35828401     0.11900
H663        H  0.61543163  0.43421960  0.27290650     0.08500
H664        H  0.64015693  0.41385694  0.31092415     0.11300
C665        C  0.75309749  0.29458116  0.62381778    -0.03300
C666        C  0.76924421  0.28271065  0.63029756    -0.05900
C667        C  0.77009762  0.26986034  0.67037548    -0.21000
C668        C  0.75478055  0.26840345  0.70465149     0.24700
C669        C  0.73863394  0.28044430  0.69846309    -0.18600
C670        C  0.73782217  0.29338762  0.65835235    -0.08500
C671        C  0.75657558  0.25441610  0.74651167    -0.18800
C672        C  0.74153598  0.24760116  0.77306132    -0.23600
C673        C  0.74348058  0.23314758  0.81376544     0.26800
C674        C  0.72862470  0.23163171  0.84936148    -0.20400
C675        C  0.72958942  0.21803811  0.88771863    -0.10000
C676        C  0.74542414  0.20556508  0.89120017    -0.10600
C677        C  0.76026076  0.20690227  0.85548614    -0.03500
C678        C  0.75927911  0.22048479  0.81694668    -0.18600
H679        H  0.78131076  0.28342043  0.60449467     0.10500
H680        H  0.78276419  0.26090424  0.67440942     0.10500
H681        H  0.72674880  0.28025175  0.72477399     0.10200
H682        H  0.72529204  0.30252209  0.65449681     0.11300
H683        H  0.77098396  0.24931140  0.75482266     0.11400
H684        H  0.72711091  0.25275909  0.76521083     0.13300
H685        H  0.71623180  0.24106375  0.84760738     0.09800
H686        H  0.71791357  0.21730707  0.91471569     0.11900
H687        H  0.77253149  0.19732210  0.85703507     0.08500
H688        H  0.77072260  0.22066068  0.78934939     0.11300
C689        C  0.75588048  0.29751321  0.38364621    -0.03300
C690        C  0.77150146  0.29820480  0.35008706    -0.05900
C691        C  0.77244961  0.28562373  0.30913634    -0.21000
C692        C  0.75795280  0.27193940  0.30121178     0.24700
C693        C  0.74210459  0.27154367  0.33435229    -0.18600
C694        C  0.74112585  0.28416333  0.37512879    -0.08500
C695        C  0.75945896  0.25886116  0.25705904    -0.18800
C696        C  0.75076520  0.24159893  0.25505691    -0.23600
C697        C  0.75101815  0.22850739  0.21064012     0.26800
C698        C  0.73832552  0.21284615  0.21059169    -0.20400
C699        C  0.73735716  0.20042510  0.16942292    -0.10000
C700        C  0.74925996  0.20321673  0.12741999    -0.10600
C701        C  0.76230191  0.21858708  0.12762487    -0.03500
C702        C  0.76319674  0.23112263  0.16871587    -0.18600
H703        H  0.78299932  0.30845889  0.35550980     0.10500
H704        H  0.78466691  0.28644766  0.28382096     0.10500
H705        H  0.73023835  0.26177769  0.32856229     0.10200
H706        H  0.72878684  0.28345712  0.40005177     0.11300
H707        H  0.76816832  0.26376005  0.22580579     0.11400
H708        H  0.74261135  0.23677361  0.28748906     0.13300
H709        H  0.72888839  0.21032037  0.24238562     0.09800
H710        H  0.72731347  0.18858819  0.17054538     0.11900
H711        H  0.77177169  0.22098707  0.09584667     0.08500
H712        H  0.77352278  0.24265183  0.16720342     0.11300
C713        C  0.29841155  0.12898410  0.45262749    -0.03300
C714        C  0.31484091  0.12401404  0.48042317    -0.05900
C715        C  0.32842972  0.11124712  0.46062322    -0.21000
C716        C  0.32604695  0.10347551  0.41237076     0.24700
C717        C  0.30963047  0.10852756  0.38440857    -0.18600
C718        C  0.29593499  0.12112570  0.40444406    -0.08500
C719        C  0.34018137  0.08913416  0.39386331    -0.18800
C720        C  0.34370354  0.08593641  0.34476181    -0.23600
C721        C  0.35676547  0.07049302  0.32694131     0.26800
C722        C  0.36629389  0.07249291  0.28064387    -0.20400
C723        C  0.37828790  0.05789873  0.26247434    -0.10000
C724        C  0.38068815  0.04091554  0.28997638    -0.10600
C725        C  0.37089615  0.03877815  0.33584203    -0.03500
C726        C  0.35907391  0.05339844  0.35418232    -0.18600
H727        H  0.31705422  0.12978195  0.51775997     0.10500
H728        H  0.34083608  0.10739574  0.48310122     0.10500
H729        H  0.30702531  0.10236709  0.34772517     0.10200
H730        H  0.28333487  0.12462854  0.38231730     0.11300
H731        H  0.34825198  0.08121216  0.42193664     0.11400
H732        H  0.33718363  0.09514792  0.31666333     0.13300
H733        H  0.36455882  0.08543411  0.25869879     0.09800
H734        H  0.38564050  0.05987653  0.22691343     0.11900
H735        H  0.37241556  0.02579593  0.35771186     0.08500
H736        H  0.35145511  0.05108177  0.38916820     0.11300
C737        C  0.61999732  0.95636144  0.67833055    -0.03300
C738        C  0.61637791  0.93690271  0.68765114    -0.05900
C739        C  0.62773330  0.92274802  0.66486972    -0.21000
C740        C  0.64308141  0.92781764  0.63318186     0.24700
C741        C  0.64650112  0.94730981  0.62338866    -0.18600
C742        C  0.63509083  0.96141183  0.64579789    -0.08500
C743        C  0.65533047  0.91261353  0.61067035    -0.18800
C744        C  0.67420940  0.91540508  0.60174643    -0.23600
C745        C  0.68740563  0.90064557  0.58107669     0.26800
C746        C  0.70716695  0.90254052  0.59067604    -0.20400
C747        C  0.72030664  0.88920337  0.57189975    -0.10000
C748        C  0.71398720  0.87379649  0.54241913    -0.10600
C749        C  0.69425817  0.87204805  0.53165377    -0.03500
C750        C  0.68102346  0.88533537  0.55096641    -0.18600
H751        H  0.60470923  0.93263524  0.71226014     0.10500
H752        H  0.62472576  0.90782375  0.67262352     0.10500
H753        H  0.65782270  0.95171523  0.59790288     0.10200
H754        H  0.63808371  0.97630077  0.63757646     0.11300
H755        H  0.64898237  0.89860920  0.60459657     0.11400
H756        H  0.68069114  0.92889576  0.61290643     0.13300
H757        H  0.71246402  0.91430937  0.61329838     0.09800
H758        H  0.73544448  0.89095949  0.58050086     0.11900
H759        H  0.68905311  0.86031635  0.50878639     0.08500
H760        H  0.66594910  0.88372922  0.54165487     0.11300
C761        C  0.62502426  0.03582388  0.80374246    -0.03300
C762        C  0.63997145  0.02870548  0.83394861    -0.05900
C763        C  0.65292624  0.04121796  0.85705674    -0.21000
C764        C  0.65097131  0.06109805  0.85133466     0.24700
C765        C  0.63609728  0.06824195  0.82076804    -0.18600
C766        C  0.62329701  0.05569622  0.79701035    -0.08500
C767        C  0.66534837  0.07385781  0.87536899    -0.18800
C768        C  0.66145584  0.09189462  0.89040969    -0.23600
C769        C  0.67644284  0.10454735  0.91244626     0.26800
C770        C  0.67125032  0.11856590  0.94793380    -0.20400
C771        C  0.68522254  0.13076288  0.96850781    -0.10000
C772        C  0.70457251  0.12933822  0.95319967    -0.10600
C773        C  0.70964421  0.11553305  0.91708071    -0.03500
C774        C  0.69578092  0.10328026  0.89697560    -0.18600
H775        H  0.64171021  0.01343833  0.83955024     0.10500
H776        H  0.66442143  0.03536416  0.87985771     0.10500
H777        H  0.63455019  0.08346734  0.81436552     0.10200
H778        H  0.61196242  0.06154290  0.77369004     0.11300
H779        H  0.67951092  0.06784363  0.88263790     0.11400
H780        H  0.64681840  0.09733980  0.88809778     0.13300
H781        H  0.65639884  0.11997149  0.96001166     0.09800
H782        H  0.68087863  0.14139077  0.99596584     0.11900
H783        H  0.72439106  0.11422423  0.90411848     0.08500
H784        H  0.70019895  0.09309452  0.86850368     0.11300
C785        C  0.45868427  0.99620136  0.12966731    -0.03300
C786        C  0.47173659  0.98082970  0.12835859    -0.05900
C787        C  0.48570937  0.97965086  0.09070032    -0.21000
C788        C  0.48683809  0.99366554  0.05312800     0.24700
C789        C  0.47380060  0.00917433  0.05456077    -0.18600
C790        C  0.45984710  0.01038726  0.09248692    -0.08500
C791        C  0.50222924  0.99184352  0.01444521    -0.18800
C792        C  0.50133238  0.00026485  0.96905695    -0.23600
C793        C  0.51679762  0.99892982  0.93047085     0.26800
C794        C  0.51735403  0.01299446  0.89301681    -0.20400
C795        C  0.53140038  0.01249692  0.85553202    -0.10000
C796        C  0.54518690  0.99776300  0.85428138    -0.10600
C797        C  0.54460660  0.98346742  0.89127845    -0.03500
C798        C  0.53052941  0.98400648  0.92914283    -0.18600
H799        H  0.47121973  0.96971096  0.15671169     0.10500
H800        H  0.49564134  0.96766316  0.09076235     0.10500
H801        H  0.47453422  0.02062409  0.02731299     0.10200
H802        H  0.45000459  0.02245890  0.09283742     0.11300
H803        H  0.51458871  0.98306599  0.02394141     0.11400
H804        H  0.48888467  0.00893910  0.95960409     0.13300
H805        H  0.50690929  0.02456384  0.89290019     0.09800
H806        H  0.53142328  0.02366286  0.82738430     0.11900
H807        H  0.55500203  0.97186567  0.89091031     0.08500
H808        H  0.53028973  0.97257533  0.95642187     0.11300
C809        C  0.54953124  0.00387040  0.61766073    -0.03300
C810        C  0.54979804  0.01981549  0.58557027    -0.05900
C811        C  0.53719796  0.02077148  0.54454686    -0.21000
C812        C  0.52398892  0.00594983  0.53532564     0.24700
C813        C  0.52399815  0.98990131  0.56722361    -0.18600
C814        C  0.53653081  0.98895825  0.60798604    -0.08500
C815        C  0.51077844  0.00736889  0.49156286    -0.18800
C816        C  0.49389597  0.99788289  0.48918231    -0.23600
C817        C  0.48069876  0.99850375  0.44543319     0.26800
C818        C  0.46782190  0.98325183  0.43847722    -0.20400
C819        C  0.45499089  0.98320587  0.39811311    -0.10000
C820        C  0.45466300  0.99853689  0.36413062    -0.10600
C821        C  0.46731414  0.01397196  0.37141773    -0.03500
C822        C  0.48021346  0.01398912  0.41170130    -0.18600
H823        H  0.55976261  0.03146973  0.59205975     0.10500
H824        H  0.53764590  0.03318459  0.52020088     0.10500
H825        H  0.51467082  0.97779606  0.56048331     0.10200
H826        H  0.53611130  0.97640835  0.63183375     0.11300
H827        H  0.51514787  0.01658315  0.46080322     0.11400
H828        H  0.48949425  0.98884955  0.52025292     0.13300
H829        H  0.46780809  0.97122798  0.46416698     0.09800
H830        H  0.44535460  0.97115594  0.39346147     0.11900
H831        H  0.46723324  0.02606325  0.34597137     0.08500
H832        H  0.48946743  0.02628207  0.41666172     0.11300
C833        C  0.12244480  0.95816728  0.80125663    -0.03300
C834        C  0.12644784  0.94099100  0.77585900    -0.05900
C835        C  0.13898267  0.92748066  0.79676496    -0.21000
C836        C  0.14759923  0.93072474  0.84373307     0.24700
C837        C  0.14363521  0.94799758  0.86907793    -0.18600
C838        C  0.13118398  0.96155536  0.84801222    -0.08500
C839        C  0.16132906  0.91621811  0.86365607    -0.18800
C840        C  0.16594838  0.91451809  0.91265636    -0.23600
C841        C  0.18003190  0.90012955  0.93134849     0.26800
C842        C  0.17808820  0.89294177  0.98037581    -0.20400
C843        C  0.19124705  0.87951323  0.99915227    -0.10000
C844        C  0.20686083  0.87334365  0.96957413    -0.10600
C845        C  0.20900168  0.88078561  0.92085011    -0.03500
C846        C  0.19572429  0.89399292  0.90185688    -0.18600
H847        H  0.12000565  0.93805570  0.73962261     0.10500
H848        H  0.14193957  0.91440935  0.77617817     0.10500
H849        H  0.15042196  0.95133545  0.90456833     0.10200
H850        H  0.12845834  0.97474866  0.86826073     0.11300
H851        H  0.16734435  0.90608175  0.83688724     0.11400
H852        H  0.15861572  0.92329300  0.94044407     0.13300
H853        H  0.16624318  0.89759372  0.00402123     0.09800
H854        H  0.18930062  0.87407698  0.03692370     0.11900
H855        H  0.22094122  0.87634187  0.89727177     0.08500
H856        H  0.19801997  0.89964361  0.86447360     0.11300
C857        C  0.29039436  0.86609372  0.07907724    -0.03300
C858        C  0.29030271  0.87097650  0.13025869    -0.05900
C859        C  0.30506080  0.88213068  0.15047360    -0.21000
C860        C  0.32004156  0.88890678  0.11986340     0.24700
C861        C  0.32036708  0.88368774  0.06871192    -0.18600
C862        C  0.30567636  0.87233082  0.04858267    -0.08500
C863        C  0.33492399  0.90138748  0.14284795    -0.18800
C864        C  0.34486458  0.91457817  0.11670140    -0.23600
C865        C  0.35791570  0.92867373  0.14079879     0.26800
C866        C  0.36075120  0.94634841  0.11702847    -0.20400
C867        C  0.37243449  0.96029133  0.13884844    -0.10000
C868        C  0.38174994  0.95677549  0.18471592    -0.10600
C869        C  0.37927107  0.93895979  0.20823223    -0.03500
C870        C  0.36747227  0.92499428  0.18645991    -0.18600
H871        H  0.27880735  0.86616293  0.15473477     0.10500
H872        H  0.30457098  0.88578879  0.19003180     0.10500
H873        H  0.33198240  0.88816207  0.04425873     0.10200
H874        H  0.30616637  0.86859045  0.00908799     0.11300
H875        H  0.33637709  0.90086399  0.18343099     0.11400
H876        H  0.34204285  0.91636099  0.07686714     0.13300
H877        H  0.35366971  0.94949735  0.08173961     0.09800
H878        H  0.37420488  0.97384287  0.11966574     0.11900
H879        H  0.38649047  0.93580451  0.24331394     0.08500
H880        H  0.36608829  0.91131690  0.20513348     0.11300
C881        C  0.11808377  0.54152828  0.29760280    -0.03300
C882        C  0.12264679  0.55768709  0.26858867    -0.05900
C883        C  0.13489524  0.57183890  0.28761136    -0.21000
C884        C  0.14249918  0.57031085  0.33629326     0.24700
C885        C  0.13786497  0.55416139  0.36541484    -0.18600
C886        C  0.12580906  0.53991510  0.34619002    -0.08500
C887        C  0.15608117  0.58516636  0.35453826    -0.18800
C888        C  0.15804946  0.58970259  0.40348602    -0.23600
C889        C  0.17238955  0.60380011  0.42201017     0.26800
C890        C  0.16884480  0.61352557  0.46732005    -0.20400
C891        C  0.18244609  0.62628105  0.48684846    -0.10000
C892        C  0.19998007  0.62934926  0.46171076    -0.10600
C893        C  0.20358952  0.61955295  0.41651725    -0.03500
C894        C  0.18996035  0.60690007  0.39685677    -0.18600
H895        H  0.11693614  0.55927378  0.23097417     0.10500
H896        H  0.13841249  0.58405267  0.26428678     0.10500
H897        H  0.14391567  0.55224072  0.40252497     0.10200
H898        H  0.12260108  0.52757157  0.36931865     0.11300
H899        H  0.16425170  0.59299914  0.32645820     0.11400
H900        H  0.14846768  0.58326815  0.43100024     0.13300
H901        H  0.15550887  0.61123900  0.48765756     0.09800
H902        H  0.17932637  0.63358754  0.52186365     0.11900
H903        H  0.21705953  0.62151426  0.39656333     0.08500
H904        H  0.19346801  0.59920667  0.36271455     0.11300
C905        C  0.28042416  0.62536164  0.57440786    -0.03300
C906        C  0.27366805  0.60923146  0.60046670    -0.05900
C907        C  0.28658082  0.59564717  0.61924441    -0.21000
C908        C  0.30652334  0.59803861  0.61318229     0.24700
C909        C  0.31330741  0.61418215  0.58692288    -0.18600
C910        C  0.30035244  0.62768552  0.56764924    -0.08500
C911        C  0.31966071  0.58299463  0.63285974    -0.18800
C912        C  0.33819825  0.58619602  0.64523727    -0.23600
C913        C  0.35112404  0.57095829  0.66491442     0.26800
C914        C  0.36676305  0.57609521  0.69546560    -0.20400
C915        C  0.37926797  0.56210388  0.71433762    -0.10000
C916        C  0.37650931  0.54270686  0.70235898    -0.10600
C917        C  0.36107520  0.53759190  0.67112097    -0.03500
C918        C  0.34851828  0.55153858  0.65254365    -0.18600
H919        H  0.25836855  0.60702622  0.60600208     0.10500
H920        H  0.28096467  0.58326258  0.63885895     0.10500
H921        H  0.32853655  0.61624852  0.58022733     0.10200
H922        H  0.30592691  0.63996567  0.54754687     0.11300
H923        H  0.31346657  0.56896542  0.63958458     0.11400
H924        H  0.34391715  0.60063061  0.64331998     0.13300
H925        H  0.36923340  0.59097135  0.70503142     0.09800
H926        H  0.39119342  0.56647714  0.73785591     0.11900
H927        H  0.35876528  0.52277633  0.66072007     0.08500
H928        H  0.33705960  0.54706855  0.62769493     0.11300
C929        C  0.23937112  0.70242869  0.64232545    -0.03300
C930        C  0.22193110  0.70668274  0.66672951    -0.05900
C931        C  0.22152757  0.71944294  0.70732321    -0.21000
C932        C  0.23849729  0.72828199  0.72425838     0.24700
C933        C  0.25601624  0.72375570  0.70020195    -0.18600
C934        C  0.25639913  0.71104812  0.65954835    -0.08500
C935        C  0.23732552  0.74162264  0.76788744    -0.18800
C936        C  0.25065491  0.75512698  0.77812568    -0.23600
C937        C  0.24941748  0.76858924  0.82153970     0.26800
C938        C  0.26621490  0.77808085  0.83717536    -0.20400
C939        C  0.26570704  0.79105476  0.87728933    -0.10000
C940        C  0.24832588  0.79488299  0.90248161    -0.10600
C941        C  0.23149309  0.78553607  0.88677471    -0.03500
C942        C  0.23197387  0.77261584  0.84662216    -0.18600
H943        H  0.20859049  0.70022122  0.65430043     0.10500
H944        H  0.20785990  0.72252979  0.72537481     0.10500
H945        H  0.26953014  0.72966240  0.71299892     0.10200
H946        H  0.27009160  0.70784897  0.64179805     0.11300
H947        H  0.22476007  0.74025614  0.79185235     0.11400
H948        H  0.26319064  0.75647567  0.75400178     0.13300
H949        H  0.27982050  0.77539087  0.81838591     0.09800
H950        H  0.27890813  0.79807842  0.88858008     0.11900
H951        H  0.21785747  0.78835054  0.90525621     0.08500
H952        H  0.21855039  0.76620034  0.83501653     0.11300
C953        C  0.24531943  0.70375935  0.40276414    -0.03300
C954        C  0.26221679  0.70517486  0.37399472    -0.05900
C955        C  0.26342513  0.71830992  0.33450649    -0.21000
C956        C  0.24771825  0.73014532  0.32247149     0.24700
C957        C  0.23079300  0.72877610  0.35159030    -0.18600
C958        C  0.22963628  0.71570032  0.39126062    -0.08500
C959        C  0.24991202  0.74402999  0.28042185    -0.18800
C960        C  0.23501386  0.75242099  0.25652251    -0.23600
C961        C  0.23741816  0.76641154  0.21486765     0.26800
C962        C  0.22246233  0.77946455  0.20527834    -0.20400
C963        C  0.22402698  0.79281530  0.16634977    -0.10000
C964        C  0.24054592  0.79326653  0.13586615    -0.10600
C965        C  0.25542927  0.78005944  0.14490071    -0.03500
C966        C  0.25388499  0.76672345  0.18386250    -0.18600
H967        H  0.27456297  0.69621866  0.38223060     0.10500
H968        H  0.27668572  0.71916341  0.31307880     0.10500
H969        H  0.21853226  0.73796481  0.34482578     0.10200
H970        H  0.21645953  0.71497964  0.41306712     0.11300
H971        H  0.26452284  0.74730941  0.26874895     0.11400
H972        H  0.22036887  0.74932625  0.26814106     0.13300
H973        H  0.20956880  0.77943760  0.22830133     0.09800
H974        H  0.21231745  0.80279978  0.16016073     0.11900
H975        H  0.26826269  0.77996993  0.12166205     0.08500
H976        H  0.26545749  0.75651877  0.18878937     0.11300
loop_ 
_geom_bond_atom_site_label_1 
_geom_bond_atom_site_label_2 
_geom_bond_distance 
_geom_bond_site_symmetry_2 
_ccdc_geom_bond_type 
In1           O3   2.239       .  S
In1           O4   2.256       .  S
In1          O12   2.238       .  S
In1           O6   2.248       .  S
In1           O8   2.255       .  S
In1           O9   2.249       .  S
In1          O10   2.239       .  S
In1          O13   2.239       .  S
C2            O8   1.263       .  A
C2           O10   1.260       .  A
C2          C929   1.479       .  S
O3           C11   1.260       .  A
O4           C11   1.263       .  A
C5           O12   1.261       .  A
C5            O6   1.264       .  A
C5          C892   1.478       .  S
C7            O9   1.263       .  A
C7           O13   1.261       .  A
C7          C953   1.477       .  S
C11         C905   1.478       .  S
In14         O16   2.238       .  S
In14         O17   2.252       .  S
In14         O25   2.242       .  S
In14         O19   2.253       .  S
In14         O21   2.248   1_554  S
In14         O22   2.263       .  S
In14         O23   2.240   1_554  S
In14         O26   2.246   1_554  S
C15          O21   1.262       .  A
C15          O23   1.261       .  A
C15         C940   1.478       .  S
O16          C24   1.261       .  A
O17          C24   1.264       .  A
C18          O25   1.260       .  A
C18          O19   1.261       .  A
C18         C857   1.476       .  S
C20          O22   1.262   1_556  A
C20          O26   1.259       .  A
C20         C844   1.481       .  S
C24         C964   1.478       .  S
In27         O29   2.231       .  S
In27         O30   2.245       .  S
In27         O38   2.240   1_565  S
In27         O32   2.250   1_565  S
In27         O34   2.260   1_565  S
In27         O35   2.265       .  S
In27         O36   2.221       .  S
In27         O39   2.222   1_565  S
C28          O34   1.265       .  A
C28          O36   1.260   1_545  A
C28         C809   1.477       .  S
O29          C37   1.262       .  A
O30          C37   1.264       .  A
C31          O38   1.261       .  A
C31          O32   1.263       .  A
C31         C761   1.478       .  S
C33          O35   1.264       .  A
C33          O39   1.258   1_565  A
C33         C796   1.477       .  S
C37         C737   1.476       .  S
In40         O42   2.234   1_565  S
In40         O43   2.244       .  S
In40         O51   2.234   1_565  S
In40         O45   2.249   1_565  S
In40         O47   2.251   1_565  S
In40         O48   2.255       .  S
In40         O49   2.226       .  S
In40         O52   2.228       .  S
C41          O47   1.264   1_565  A
C41          O49   1.261       .  A
C41         C785   1.475       .  S
O42          C50   1.261   1_545  A
O43          C50   1.264       .  A
C44          O51   1.261       .  A
C44          O45   1.263       .  A
C44         C724   1.476       .  S
C46          O48   1.263       .  A
C46          O52   1.260       .  A
C46         C868   1.476       .  S
C50         C820   1.475       .  S
In53         O55   2.239       .  S
In53         O56   2.253       .  S
In53         O64   2.245       .  S
In53         O58   2.255       .  S
In53         O60   2.255       .  S
In53         O61   2.259       .  S
In53         O62   2.234       .  S
In53         O65   2.236       .  S
C54          O60   1.264       .  A
C54          O62   1.261       .  A
C54         C665   1.478       .  S
O55          C63   1.261       .  A
O56          C63   1.264       .  A
C57          O64   1.260       .  A
C57          O58   1.263       .  A
C57         C641   1.480       .  S
C59          O61   1.264       .  A
C59          O65   1.261       .  A
C59         C628   1.480       .  S
C63         C689   1.479       .  S
In66         O68   2.243       .  S
In66         O69   2.258   1_554  S
In66         O77   2.235   1_554  S
In66         O71   2.268       .  S
In66         O73   2.249       .  S
In66         O74   2.254   1_554  S
In66         O75   2.244       .  S
In66         O78   2.229   1_554  S
C67          O73   1.265       .  A
C67          O75   1.262       .  A
C67         C700   1.480       .  S
O68          C76   1.261       .  A
O69          C76   1.264   1_556  A
C70          O77   1.260       .  A
C70          O71   1.263   1_556  A
C70         C772   1.481       .  S
C72          O74   1.264       .  A
C72          O78   1.260       .  A
C72         C676   1.477       .  S
C76         C593   1.482       .  S
In79         O81   2.241       .  S
In79         O82   2.251       .  S
In79         O90   2.239       .  S
In79         O84   2.268       .  S
In79         O86   2.261       .  S
In79         O87   2.241       .  S
In79         O88   2.229       .  S
In79         O91   2.239       .  S
C80          O86   1.265       .  A
C80          O88   1.260       .  A
C80         C569   1.479       .  S
O81          C89   1.261       .  A
O82          C89   1.262       .  A
C83          O90   1.260       .  A
C83          O84   1.265       .  A
C83         C521   1.483       .  S
C85          O87   1.263       .  A
C85          O91   1.261       .  A
C85         C556   1.476       .  S
C89         C916   1.478       .  S
In92         O94   2.227       .  S
In92         O95   2.259       .  S
In92        O103   2.214       .  S
In92         O97   2.249       .  S
In92         O99   2.254       .  S
In92        O100   2.253       .  S
In92        O101   2.225       .  S
In92        O104   2.232       .  S
C93          O99   1.264       .  A
C93         O101   1.261       .  A
C93         C580   1.477       .  S
O94         C102   1.260       .  A
O95         C102   1.265       .  A
C96         O103   1.261       .  A
C96          O97   1.265       .  A
C96         C497   1.471       .  S
C98         O100   1.266       .  A
C98         O104   1.262       .  A
C98         C652   1.479       .  S
C102        C545   1.478       .  S
In105       O107   2.216   1_556  S
In105       O108   2.251   1_556  S
In105       O116   2.222   1_556  S
In105       O110   2.246       .  S
In105       O112   2.248       .  S
In105       O113   2.253       .  S
In105       O114   2.220       .  S
In105       O117   2.228       .  S
C106        O112   1.264       .  A
C106        O114   1.261       .  A
C106        C473   1.473       .  S
O107        C115   1.260       .  A
O108        C115   1.265       .  A
C109        O116   1.261       .  A
C109        O110   1.263   1_554  A
C109        C508   1.472       .  S
C111        O113   1.264       .  A
C111        O117   1.261       .  A
C111        C436   1.477       .  S
C115        C460   1.473       .  S
In118       O120   2.229       .  S
In118       O121   2.247       .  S
In118       O129   2.228       .  S
In118       O123   2.252       .  S
In118       O125   2.255       .  S
In118       O126   2.250       .  S
In118       O127   2.226       .  S
In118       O130   2.225       .  S
C119        O125   1.263       .  A
C119        O127   1.259       .  A
C119        C484   1.475       .  S
O120        C128   1.262       .  A
O121        C128   1.263       .  A
C122        O129   1.261       .  A
C122        O123   1.264       .  A
C122        C401   1.477       .  S
C124        O126   1.263       .  A
C124        O130   1.260       .  A
C124        C449   1.474       .  S
C128        C748   1.474       .  S
In131       O133   2.236       .  S
In131       O134   2.256       .  S
In131       O142   2.252   1_565  S
In131       O136   2.252   1_565  S
In131       O138   2.244   1_565  S
In131       O139   2.251       .  S
In131       O140   2.244       .  S
In131       O143   2.236   1_565  S
C132        O138   1.262       .  A
C132        O140   1.261   1_545  A
C132        C388   1.477       .  S
O133        C141   1.260       .  A
O134        C141   1.262       .  A
C135        O142   1.261       .  A
C135        O136   1.261       .  A
C135        C604   1.480       .  S
C137        O139   1.262       .  A
C137        O143   1.260   1_565  A
C137        C353   1.476       .  S
C141        C412   1.476       .  S
In144       O146   2.243       .  S
In144       O147   2.242   1_565  S
In144       O155   2.241       .  S
In144       O149   2.251       .  S
In144       O151   2.259       .  S
In144       O152   2.251   1_565  S
In144       O153   2.240   1_565  S
In144       O156   2.242   1_565  S
C145        O151   1.263       .  A
C145        O153   1.260   1_565  A
C145        C377   1.479       .  S
O146        C154   1.262   1_565  A
O147        C154   1.262       .  A
C148        O155   1.261       .  A
C148        O149   1.263       .  A
C148        C833   1.479       .  S
C150        O152   1.261       .  A
C150        O156   1.260       .  A
C150        C329   1.477       .  S
C154        C364   1.477       .  S
In157       O159   2.230       .  S
In157       O160   2.268       .  S
In157       O168   2.239       .  S
In157       O162   2.247       .  S
In157       O164   2.250       .  S
In157       O165   2.265       .  S
In157       O166   2.238       .  S
In157       O169   2.229       .  S
C158        O164   1.264       .  A
C158        O166   1.262       .  A
C158        C316   1.477       .  S
O159        C167   1.260       .  A
O160        C167   1.266       .  A
C161        O168   1.262       .  A
C161        O162   1.264       .  A
C161        C713   1.478       .  S
C163        O165   1.266       .  A
C163        O169   1.261       .  A
C163        C340   1.481       .  S
C167        C292   1.482       .  S
In170       O172   2.236   1_554  S
In170       O173   2.260       .  S
In170       O181   2.236       .  S
In170       O175   2.247       .  S
In170       O177   2.246   1_554  S
In170       O178   2.265       .  S
In170       O179   2.240   1_554  S
In170       O182   2.230       .  S
C171        O177   1.263       .  A
C171        O179   1.262       .  A
C171        C305   1.477       .  S
O172        C180   1.261       .  A
O173        C180   1.265   1_554  A
C174        O181   1.261       .  A
C174        O175   1.263       .  A
C174        C268   1.477       .  S
C176        O178   1.265       .  A
C176        O182   1.260       .  A
C176        C281   1.481       .  S
C180        C532   1.482       .  S
In183       O185   2.231       .  S
In183       O186   2.244       .  S
In183       O194   2.231       .  S
In183       O188   2.258       .  S
In183       O190   2.260       .  S
In183       O191   2.255       .  S
In183       O192   2.222       .  S
In183       O195   2.237       .  S
C184        O190   1.266       .  A
C184        O192   1.260       .  A
C184        C244   1.478       .  S
O185        C193   1.262       .  A
O186        C193   1.265       .  A
C187        O194   1.260       .  A
C187        O188   1.265       .  A
C187        C425   1.479       .  S
C189        O191   1.264       .  A
C189        O195   1.261       .  A
C189        C617   1.480       .  S
C193        C220   1.476       .  S
In196       O198   2.243       .  S
In196       O199   2.263       .  S
In196       O207   2.241       .  S
In196       O201   2.254       .  S
In196       O203   2.261       .  S
In196       O204   2.248       .  S
In196       O205   2.233       .  S
In196       O208   2.242       .  S
C197        O203   1.263       .  A
C197        O205   1.259       .  A
C197        C209   1.478       .  S
O198        C206   1.260       .  A
O199        C206   1.262       .  A
C200        O207   1.261       .  A
C200        O201   1.263       .  A
C200        C881   1.479       .  S
C202        O204   1.264       .  A
C202        O208   1.261       .  A
C202        C233   1.479       .  S
C206        C257   1.481       .  S
C209        C210   1.404       .  A
C209        C214   1.404       .  A
C210        C211   1.395       .  A
C210        H223   1.083       .  S
C211        C212   1.402       .  A
C211        H224   1.084       .  S
C212        C213   1.410       .  A
C212        C215   1.487       .  S
C213        C214   1.401       .  A
C213        H225   1.080       .  S
C214        H226   1.083       .  S
C215        C216   1.347   1_454  D
C215        H227   1.084   1_454  S
C216        C217   1.488       .  S
C216        H228   1.084   1_655  S
C217        C218   1.403       .  A
C217        C222   1.410       .  A
C218        C219   1.397       .  A
C218        H229   1.084       .  S
C219        C220   1.404       .  A
C219        H230   1.083       .  S
C220        C221   1.403       .  A
C221        C222   1.398       .  A
C221        H231   1.083       .  S
C222        H232   1.080       .  S
C233        C234   1.403       .  A
C233        C238   1.405       .  A
C234        C235   1.398       .  A
C234        H247   1.083       .  S
C235        C236   1.405       .  A
C235        H248   1.083       .  S
C236        C237   1.408       .  A
C236        C239   1.488       .  S
C237        C238   1.399       .  A
C237        H249   1.081       .  S
C238        H250   1.083       .  S
C239        C240   1.350   1_455  D
C239        H251   1.084   1_455  S
C240        C241   1.489       .  S
C240        H252   1.084       .  S
C241        C242   1.406       .  A
C241        C246   1.407       .  A
C242        C243   1.401       .  A
C242        H253   1.083       .  S
C243        C244   1.403       .  A
C243        H254   1.083       .  S
C244        C245   1.405       .  A
C245        C246   1.396       .  A
C245        H255   1.083       .  S
C246        H256   1.081       .  S
C257        C258   1.406       .  A
C257        C262   1.404       .  A
C258        C259   1.402       .  A
C258        H271   1.083       .  S
C259        C260   1.405       .  A
C259        H272   1.083       .  S
C260        C261   1.406       .  A
C260        C263   1.486       .  S
C261        C262   1.397       .  A
C261        H273   1.082       .  S
C262        H274   1.083       .  S
C263        C264   1.347       .  D
C263        H275   1.087       .  S
C264        C265   1.482       .  S
C264        H276   1.086       .  S
C265        C266   1.402       .  A
C265        C270   1.406       .  A
C266        C267   1.397       .  A
C266        H277   1.083       .  S
C267        C268   1.405       .  A
C267        H278   1.083       .  S
C268        C269   1.405       .  A
C269        C270   1.400       .  A
C269        H279   1.083       .  S
C270        H280   1.082       .  S
C281        C282   1.404       .  A
C281        C286   1.404       .  A
C282        C283   1.396       .  A
C282        H295   1.083       .  S
C283        C284   1.404       .  A
C283        H296   1.084       .  S
C284        C285   1.413       .  A
C284        C287   1.495       .  S
C285        C286   1.403       .  A
C285        H297   1.079       .  S
C286        H298   1.083       .  S
C287        C288   1.349       .  D
C287        H299   1.084       .  S
C288        C289   1.492       .  S
C288        H300   1.082       .  S
C289        C290   1.403       .  A
C289        C294   1.411       .  A
C290        C291   1.397       .  A
C290        H301   1.084       .  S
C291        C292   1.405       .  A
C291        H302   1.083       .  S
C292        C293   1.404       .  A
C293        C294   1.402       .  A
C293        H303   1.083       .  S
C294        H304   1.081       .  S
C305        C306   1.404       .  A
C305        C310   1.404       .  A
C306        C307   1.399       .  A
C306        H319   1.083       .  S
C307        C308   1.404       .  A
C307        H320   1.084       .  S
C308        C309   1.408       .  A
C308        C311   1.487       .  S
C309        C310   1.398       .  A
C309        H321   1.082       .  S
C310        H322   1.083       .  S
C311        C312   1.349       .  D
C311        H323   1.084       .  S
C312        C313   1.491       .  S
C312        H324   1.086       .  S
C313        C314   1.406       .  A
C313        C318   1.409       .  A
C314        C315   1.399       .  A
C314        H325   1.084       .  S
C315        C316   1.402       .  A
C315        H326   1.083       .  S
C316        C317   1.404       .  A
C317        C318   1.399       .  A
C317        H327   1.083       .  S
C318        H328   1.080       .  S
C329        C330   1.404       .  A
C329        C334   1.404       .  A
C330        C331   1.399       .  A
C330        H343   1.083       .  S
C331        C332   1.404       .  A
C331        H344   1.083       .  S
C332        C333   1.408       .  A
C332        C335   1.487       .  S
C333        C334   1.398       .  A
C333        H345   1.082       .  S
C334        H346   1.083       .  S
C335        C336   1.346       .  D
C335        H347   1.086       .  S
C336        C337   1.485       .  S
C336        H348   1.086       .  S
C337        C338   1.402       .  A
C337        C342   1.409       .  A
C338        C339   1.396       .  A
C338        H349   1.084       .  S
C339        C340   1.405       .  A
C339        H350   1.083       .  S
C340        C341   1.405       .  A
C341        C342   1.403       .  A
C341        H351   1.083       .  S
C342        H352   1.082       .  S
C353        C354   1.403       .  A
C353        C358   1.404   1_565  A
C354        C355   1.399       .  A
C354        H367   1.083       .  S
C355        C356   1.405       .  A
C355        H368   1.083       .  S
C356        C357   1.408   1_565  A
C356        C359   1.488   1_554  S
C357        C358   1.397       .  A
C357        H369   1.081       .  S
C358        H370   1.083       .  S
C359        C360   1.349   1_665  D
C359        H371   1.084       .  S
C360        C361   1.488       .  S
C360        H372   1.084   1_556  S
C361        C362   1.404       .  A
C361        C366   1.409   1_545  A
C362        C363   1.397       .  A
C362        H373   1.083       .  S
C363        C364   1.403       .  A
C363        H374   1.083       .  S
C364        C365   1.404   1_545  A
C365        C366   1.399       .  A
C365        H375   1.083       .  S
C366        H376   1.080       .  S
C377        C378   1.403       .  A
C377        C382   1.404   1_565  A
C378        C379   1.400       .  A
C378        H391   1.083       .  S
C379        C380   1.405       .  A
C379        H392   1.083       .  S
C380        C381   1.408   1_565  A
C380        C383   1.490       .  S
C381        C382   1.398       .  A
C381        H393   1.081       .  S
C382        H394   1.083       .  S
C383        C384   1.350   1_565  D
C383        H395   1.083       .  S
C384        C385   1.490   1_455  S
C384        H396   1.084       .  S
C385        C386   1.405       .  A
C385        C390   1.409   1_545  A
C386        C387   1.398       .  A
C386        H397   1.083       .  S
C387        C388   1.403       .  A
C387        H398   1.083       .  S
C388        C389   1.404   1_545  A
C389        C390   1.399       .  A
C389        H399   1.083       .  S
C390        H400   1.080       .  S
C401        C402   1.404       .  A
C401        C406   1.404       .  A
C402        C403   1.396       .  A
C402        H415   1.083       .  S
C403        C404   1.402       .  A
C403        H416   1.083       .  S
C404        C405   1.409       .  A
C404        C407   1.485       .  S
C405        C406   1.401       .  A
C405        H417   1.082       .  S
C406        H418   1.083       .  S
C407        C408   1.345       .  D
C407        H419   1.086       .  S
C408        C409   1.484       .  S
C408        H420   1.086       .  S
C409        C410   1.402       .  A
C409        C414   1.408       .  A
C410        C411   1.396       .  A
C410        H421   1.083       .  S
C411        C412   1.404       .  A
C411        H422   1.083       .  S
C412        C413   1.405       .  A
C413        C414   1.401       .  A
C413        H423   1.083       .  S
C414        H424   1.082       .  S
C425        C426   1.406       .  A
C425        C430   1.404       .  A
C426        C427   1.398       .  A
C426        H439   1.083       .  S
C427        C428   1.402       .  A
C427        H440   1.083       .  S
C428        C429   1.409       .  A
C428        C431   1.486       .  S
C429        C430   1.400       .  A
C429        H441   1.082       .  S
C430        H442   1.083       .  S
C431        C432   1.345       .  D
C431        H443   1.086       .  S
C432        C433   1.484       .  S
C432        H444   1.086       .  S
C433        C434   1.402       .  A
C433        C438   1.409       .  A
C434        C435   1.395       .  A
C434        H445   1.083       .  S
C435        C436   1.403       .  A
C435        H446   1.083       .  S
C436        C437   1.405       .  A
C437        C438   1.402       .  A
C437        H447   1.083       .  S
C438        H448   1.082       .  S
C449        C450   1.403       .  A
C449        C454   1.402       .  A
C450        C451   1.394       .  A
C450        H463   1.083       .  S
C451        C452   1.403       .  A
C451        H464   1.084       .  S
C452        C453   1.412       .  A
C452        C455   1.490       .  S
C453        C454   1.399       .  A
C453        H465   1.079       .  S
C454        H466   1.083       .  S
C455        C456   1.346       .  D
C455        H467   1.084       .  S
C456        C457   1.485       .  S
C456        H468   1.082       .  S
C457        C458   1.402       .  A
C457        C462   1.411       .  A
C458        C459   1.393       .  A
C458        H469   1.084       .  S
C459        C460   1.403       .  A
C459        H470   1.083       .  S
C460        C461   1.403       .  A
C461        C462   1.399       .  A
C461        H471   1.083       .  S
C462        H472   1.080       .  S
C473        C474   1.402       .  A
C473        C478   1.402       .  A
C474        C475   1.398       .  A
C474        H487   1.083       .  S
C475        C476   1.407       .  A
C475        H488   1.083       .  S
C476        C477   1.409       .  A
C476        C479   1.490       .  S
C477        C478   1.394       .  A
C477        H489   1.078       .  S
C478        H490   1.083       .  S
C479        C480   1.350       .  D
C479        H491   1.083       .  S
C480        C481   1.486       .  S
C480        H492   1.081       .  S
C481        C482   1.406       .  A
C481        C486   1.407       .  A
C482        C483   1.399       .  A
C482        H493   1.083       .  S
C483        C484   1.403       .  A
C483        H494   1.083       .  S
C484        C485   1.404       .  A
C485        C486   1.395       .  A
C485        H495   1.083       .  S
C486        H496   1.080       .  S
C497        C498   1.403       .  A
C497        C502   1.404       .  A
C498        C499   1.392       .  A
C498        H511   1.083       .  S
C499        C500   1.401       .  A
C499        H512   1.083       .  S
C500        C501   1.408       .  A
C500        C503   1.478       .  S
C501        C502   1.399       .  A
C501        H513   1.082       .  S
C502        H514   1.083       .  S
C503        C504   1.345       .  D
C503        H515   1.085       .  S
C504        C505   1.482       .  S
C504        H516   1.086       .  S
C505        C506   1.404       .  A
C505        C510   1.407       .  A
C506        C507   1.399       .  A
C506        H517   1.083       .  S
C507        C508   1.404       .  A
C507        H518   1.083       .  S
C508        C509   1.403       .  A
C509        C510   1.393       .  A
C509        H519   1.083       .  S
C510        H520   1.082       .  S
C521        C522   1.406       .  A
C521        C526   1.404       .  A
C522        C523   1.399       .  A
C522        H535   1.083       .  S
C523        C524   1.403       .  A
C523        H536   1.083       .  S
C524        C525   1.409       .  A
C524        C527   1.491       .  S
C525        C526   1.403       .  A
C525        H537   1.082       .  S
C526        H538   1.083       .  S
C527        C528   1.348       .  D
C527        H539   1.086       .  S
C528        C529   1.489       .  S
C528        H540   1.086       .  S
C529        C530   1.403       .  A
C529        C534   1.409       .  A
C530        C531   1.398       .  A
C530        H541   1.083       .  S
C531        C532   1.405       .  A
C531        H542   1.083       .  S
C532        C533   1.405       .  A
C533        C534   1.403       .  A
C533        H543   1.083       .  S
C534        H544   1.082       .  S
C545        C546   1.403       .  A
C545        C550   1.404       .  A
C546        C547   1.401       .  A
C546        H559   1.083       .  S
C547        C548   1.406       .  A
C547        H560   1.083       .  S
C548        C549   1.408       .  A
C548        C551   1.489   1_554  S
C549        C550   1.396       .  A
C549        H561   1.081       .  S
C550        H562   1.083       .  S
C551        C552   1.350       .  D
C551        H563   1.082       .  S
C552        C553   1.491       .  S
C552        H564   1.084   1_556  S
C553        C554   1.406       .  A
C553        C558   1.410       .  A
C554        C555   1.397       .  A
C554        H565   1.083       .  S
C555        C556   1.402       .  A
C555        H566   1.083       .  S
C556        C557   1.404       .  A
C557        C558   1.399       .  A
C557        H567   1.083       .  S
C558        H568   1.079       .  S
C569        C570   1.405       .  A
C569        C574   1.403       .  A
C570        C571   1.396       .  A
C570        H583   1.083       .  S
C571        C572   1.402       .  A
C571        H584   1.084       .  S
C572        C573   1.410       .  A
C572        C575   1.487       .  S
C573        C574   1.401       .  A
C573        H585   1.081       .  S
C574        H586   1.083       .  S
C575        C576   1.346       .  D
C575        H587   1.085       .  S
C576        C577   1.486       .  S
C576        H588   1.085       .  S
C577        C578   1.402       .  A
C577        C582   1.410       .  A
C578        C579   1.395       .  A
C578        H589   1.084       .  S
C579        C580   1.404       .  A
C579        H590   1.083       .  S
C580        C581   1.404       .  A
C581        C582   1.401       .  A
C581        H591   1.083       .  S
C582        H592   1.081       .  S
C593        C594   1.404       .  A
C593        C598   1.406       .  A
C594        C595   1.401       .  A
C594        H607   1.083   1_554  S
C595        C596   1.405       .  A
C595        H608   1.083       .  S
C596        C597   1.408       .  A
C596        C599   1.490       .  S
C597        C598   1.400       .  A
C597        H609   1.082       .  S
C598        H610   1.083       .  S
C599        C600   1.349       .  D
C599        H611   1.086       .  S
C600        C601   1.488       .  S
C600        H612   1.085       .  S
C601        C602   1.404       .  A
C601        C606   1.407       .  A
C602        C603   1.401       .  A
C602        H613   1.083       .  S
C603        C604   1.405       .  A
C603        H614   1.083       .  S
C604        C605   1.405       .  A
C605        C606   1.399       .  A
C605        H615   1.083       .  S
C606        H616   1.082       .  S
C617        C618   1.405       .  A
C617        C622   1.405       .  A
C618        C619   1.398       .  A
C618        H631   1.083       .  S
C619        C620   1.403       .  A
C619        H632   1.083       .  S
C620        C621   1.409       .  A
C620        C623   1.487       .  S
C621        C622   1.402       .  A
C621        H633   1.082       .  S
C622        H634   1.083       .  S
C623        C624   1.346       .  D
C623        H635   1.086       .  S
C624        C625   1.486       .  S
C624        H636   1.086       .  S
C625        C626   1.402       .  A
C625        C630   1.408       .  A
C626        C627   1.397       .  A
C626        H637   1.083       .  S
C627        C628   1.405       .  A
C627        H638   1.083       .  S
C628        C629   1.405       .  A
C629        C630   1.402       .  A
C629        H639   1.083       .  S
C630        H640   1.082       .  S
C641        C642   1.404       .  A
C641        C646   1.405       .  A
C642        C643   1.400       .  A
C642        H655   1.083       .  S
C643        C644   1.404       .  A
C643        H656   1.083       .  S
C644        C645   1.407       .  A
C644        C647   1.487       .  S
C645        C646   1.399       .  A
C645        H657   1.082       .  S
C646        H658   1.083       .  S
C647        C648   1.347       .  D
C647        H659   1.086       .  S
C648        C649   1.486       .  S
C648        H660   1.086       .  S
C649        C650   1.403       .  A
C649        C654   1.408       .  A
C650        C651   1.398       .  A
C650        H661   1.083       .  S
C651        C652   1.405       .  A
C651        H662   1.083       .  S
C652        C653   1.405       .  A
C653        C654   1.401       .  A
C653        H663   1.083       .  S
C654        H664   1.082       .  S
C665        C666   1.404       .  A
C665        C670   1.404       .  A
C666        C667   1.396       .  A
C666        H679   1.083       .  S
C667        C668   1.403       .  A
C667        H680   1.084       .  S
C668        C669   1.410       .  A
C668        C671   1.488       .  S
C669        C670   1.401       .  A
C669        H681   1.081       .  S
C670        H682   1.083       .  S
C671        C672   1.347       .  D
C671        H683   1.084       .  S
C672        C673   1.488       .  S
C672        H684   1.084       .  S
C673        C674   1.403       .  A
C673        C678   1.410       .  A
C674        C675   1.396       .  A
C674        H685   1.084       .  S
C675        C676   1.404       .  A
C675        H686   1.083       .  S
C676        C677   1.403       .  A
C677        C678   1.399       .  A
C677        H687   1.083       .  S
C678        H688   1.081       .  S
C689        C690   1.404       .  A
C689        C694   1.405       .  A
C690        C691   1.400       .  A
C690        H703   1.083       .  S
C691        C692   1.405       .  A
C691        H704   1.083       .  S
C692        C693   1.408       .  A
C692        C695   1.491       .  S
C693        C694   1.399       .  A
C693        H705   1.081       .  S
C694        H706   1.083       .  S
C695        C696   1.350       .  D
C695        H707   1.083       .  S
C696        C697   1.493       .  S
C696        H708   1.085       .  S
C697        C698   1.406       .  A
C697        C702   1.410       .  A
C698        C699   1.398       .  A
C698        H709   1.084       .  S
C699        C700   1.402       .  A
C699        H710   1.083       .  S
C700        C701   1.405       .  A
C701        C702   1.401       .  A
C701        H711   1.083       .  S
C702        H712   1.080       .  S
C713        C714   1.404       .  A
C713        C718   1.405       .  A
C714        C715   1.399       .  A
C714        H727   1.083       .  S
C715        C716   1.404       .  A
C715        H728   1.083       .  S
C716        C717   1.407       .  A
C716        C719   1.484       .  S
C717        C718   1.398       .  A
C717        H729   1.082       .  S
C718        H730   1.083       .  S
C719        C720   1.347       .  D
C719        H731   1.086       .  S
C720        C721   1.484       .  S
C720        H732   1.086       .  S
C721        C722   1.404       .  A
C721        C726   1.407       .  A
C722        C723   1.400       .  A
C722        H733   1.083       .  S
C723        C724   1.404       .  A
C723        H734   1.083       .  S
C724        C725   1.404       .  A
C725        C726   1.396       .  A
C725        H735   1.083       .  S
C726        H736   1.082       .  S
C737        C738   1.405       .  A
C737        C742   1.403       .  A
C738        C739   1.400       .  A
C738        H751   1.083       .  S
C739        C740   1.403       .  A
C739        H752   1.083       .  S
C740        C741   1.407       .  A
C740        C743   1.484       .  S
C741        C742   1.395       .  A
C741        H753   1.082       .  S
C742        H754   1.083       .  S
C743        C744   1.346       .  D
C743        H755   1.086       .  S
C744        C745   1.482       .  S
C744        H756   1.086       .  S
C745        C746   1.402       .  A
C745        C750   1.408       .  A
C746        C747   1.394       .  A
C746        H757   1.084       .  S
C747        C748   1.402       .  A
C747        H758   1.083       .  S
C748        C749   1.405       .  A
C749        C750   1.401       .  A
C749        H759   1.083       .  S
C750        H760   1.082       .  S
C761        C762   1.404       .  A
C761        C766   1.405       .  A
C762        C763   1.398       .  A
C762        H775   1.083       .  S
C763        C764   1.403       .  A
C763        H776   1.083       .  S
C764        C765   1.407       .  A
C764        C767   1.484       .  S
C765        C766   1.400       .  A
C765        H777   1.082       .  S
C766        H778   1.083       .  S
C767        C768   1.348       .  D
C767        H779   1.086       .  S
C768        C769   1.487       .  S
C768        H780   1.086       .  S
C769        C770   1.405       .  A
C769        C774   1.406       .  A
C770        C771   1.404       .  A
C770        H781   1.083       .  S
C771        C772   1.406       .  A
C771        H782   1.083       .  S
C772        C773   1.404       .  A
C773        C774   1.396       .  A
C773        H783   1.083       .  S
C774        H784   1.082       .  S
C785        C786   1.404       .  A
C785        C790   1.403   1_565  A
C786        C787   1.395       .  A
C786        H799   1.084       .  S
C787        C788   1.402       .  A
C787        H800   1.084       .  S
C788        C789   1.411   1_565  A
C788        C791   1.487       .  S
C789        C790   1.399       .  A
C789        H801   1.081       .  S
C790        H802   1.084       .  S
C791        C792   1.345   1_564  D
C791        H803   1.084       .  S
C792        C793   1.486   1_545  S
C792        H804   1.084       .  S
C793        C794   1.401   1_565  A
C793        C798   1.411       .  A
C794        C795   1.393       .  A
C794        H805   1.085       .  S
C795        C796   1.404   1_545  A
C795        H806   1.082       .  S
C796        C797   1.404       .  A
C797        C798   1.402       .  A
C797        H807   1.084       .  S
C798        H808   1.080       .  S
C809        C810   1.404       .  A
C809        C814   1.403   1_545  A
C810        C811   1.402       .  A
C810        H823   1.083       .  S
C811        C812   1.406       .  A
C811        H824   1.083       .  S
C812        C813   1.407   1_545  A
C812        C815   1.487       .  S
C813        C814   1.393       .  A
C813        H825   1.081       .  S
C814        H826   1.083       .  S
C815        C816   1.349   1_545  D
C815        H827   1.085       .  S
C816        C817   1.483       .  S
C816        H828   1.084       .  S
C817        C818   1.404       .  A
C817        C822   1.407   1_565  A
C818        C819   1.397       .  A
C818        H829   1.083       .  S
C819        C820   1.402       .  A
C819        H830   1.083       .  S
C820        C821   1.405   1_565  A
C821        C822   1.398       .  A
C821        H831   1.083       .  S
C822        H832   1.081       .  S
C833        C834   1.403       .  A
C833        C838   1.405       .  A
C834        C835   1.399       .  A
C834        H847   1.083       .  S
C835        C836   1.405       .  A
C835        H848   1.083       .  S
C836        C837   1.408       .  A
C836        C839   1.489       .  S
C837        C838   1.399       .  A
C837        H849   1.082       .  S
C838        H850   1.083       .  S
C839        C840   1.349       .  D
C839        H851   1.086       .  S
C840        C841   1.487       .  S
C840        H852   1.085       .  S
C841        C842   1.405       .  A
C841        C846   1.407       .  A
C842        C843   1.401       .  A
C842        H853   1.083   1_556  S
C843        C844   1.405       .  A
C843        H854   1.083   1_556  S
C844        C845   1.405       .  A
C845        C846   1.398       .  A
C845        H855   1.083       .  S
C846        H856   1.082       .  S
C857        C858   1.403       .  A
C857        C862   1.404       .  A
C858        C859   1.396       .  A
C858        H871   1.083       .  S
C859        C860   1.403       .  A
C859        H872   1.083       .  S
C860        C861   1.409       .  A
C860        C863   1.485       .  S
C861        C862   1.400       .  A
C861        H873   1.082       .  S
C862        H874   1.083       .  S
C863        C864   1.346       .  D
C863        H875   1.085       .  S
C864        C865   1.485       .  S
C864        H876   1.085       .  S
C865        C866   1.402       .  A
C865        C870   1.409       .  A
C866        C867   1.395       .  A
C866        H877   1.083       .  S
C867        C868   1.404       .  A
C867        H878   1.083       .  S
C868        C869   1.404       .  A
C869        C870   1.400       .  A
C869        H879   1.083       .  S
C870        H880   1.082       .  S
C881        C882   1.404       .  A
C881        C886   1.405       .  A
C882        C883   1.400       .  A
C882        H895   1.083       .  S
C883        C884   1.404       .  A
C883        H896   1.083       .  S
C884        C885   1.407       .  A
C884        C887   1.485       .  S
C885        C886   1.398       .  A
C885        H897   1.082       .  S
C886        H898   1.083       .  S
C887        C888   1.347       .  D
C887        H899   1.086       .  S
C888        C889   1.486       .  S
C888        H900   1.086       .  S
C889        C890   1.404       .  A
C889        C894   1.407       .  A
C890        C891   1.400       .  A
C890        H901   1.083       .  S
C891        C892   1.404       .  A
C891        H902   1.083       .  S
C892        C893   1.405       .  A
C893        C894   1.398       .  A
C893        H903   1.083       .  S
C894        H904   1.082       .  S
C905        C906   1.404       .  A
C905        C910   1.404       .  A
C906        C907   1.398       .  A
C906        H919   1.083       .  S
C907        C908   1.403       .  A
C907        H920   1.083       .  S
C908        C909   1.408       .  A
C908        C911   1.486       .  S
C909        C910   1.400       .  A
C909        H921   1.081       .  S
C910        H922   1.083       .  S
C911        C912   1.348       .  D
C911        H923   1.086       .  S
C912        C913   1.487       .  S
C912        H924   1.085       .  S
C913        C914   1.404       .  A
C913        C918   1.407       .  A
C914        C915   1.400       .  A
C914        H925   1.084       .  S
C915        C916   1.405       .  A
C915        H926   1.083       .  S
C916        C917   1.404       .  A
C917        C918   1.397       .  A
C917        H927   1.083       .  S
C918        H928   1.082       .  S
C929        C930   1.403       .  A
C929        C934   1.405       .  A
C930        C931   1.400       .  A
C930        H943   1.083       .  S
C931        C932   1.405       .  A
C931        H944   1.083       .  S
C932        C933   1.408       .  A
C932        C935   1.490       .  S
C933        C934   1.399       .  A
C933        H945   1.081       .  S
C934        H946   1.083       .  S
C935        C936   1.350       .  D
C935        H947   1.084       .  S
C936        C937   1.491       .  S
C936        H948   1.084       .  S
C937        C938   1.406       .  A
C937        C942   1.409       .  A
C938        C939   1.400       .  A
C938        H949   1.083       .  S
C939        C940   1.404       .  A
C939        H950   1.083       .  S
C940        C941   1.403       .  A
C941        C942   1.398       .  A
C941        H951   1.083       .  S
C942        H952   1.080       .  S
C953        C954   1.403       .  A
C953        C958   1.405       .  A
C954        C955   1.398       .  A
C954        H967   1.083       .  S
C955        C956   1.405       .  A
C955        H968   1.083       .  S
C956        C957   1.409       .  A
C956        C959   1.489       .  S
C957        C958   1.399       .  A
C957        H969   1.080       .  S
C958        H970   1.083       .  S
C959        C960   1.349       .  D
C959        H971   1.085       .  S
C960        C961   1.488       .  S
C960        H972   1.084       .  S
C961        C962   1.404       .  A
C961        C966   1.408       .  A
C962        C963   1.399       .  A
C962        H973   1.083       .  S
C963        C964   1.403       .  A
C963        H974   1.083       .  S
C964        C965   1.405       .  A
C965        C966   1.399       .  A
C965        H975   1.083       .  S
C966        H976   1.081       .  S
