geometry optimzed in LAMMPS
_audit_creation_date              2020-12-01 
_audit_creation_method            'lammps2cif' 
_symmetry_space_group_name_H-M    'P1' 
_symmetry_Int_Tables_number       1 
_symmetry_cell_setting            triclinic 
loop_ 
_symmetry_equiv_pos_as_xyz 
  x,y,z 
_cell_length_a                    38.66552163 
_cell_length_b                    38.41523483184627 
_cell_length_c                    38.367012792040576 
_cell_angle_alpha                 89.88115762052455 
_cell_angle_beta                  90.04224110793193 
_cell_angle_gamma                 90.19379495885367 
loop_ 
_atom_site_label 
_atom_site_type_symbol 
_atom_site_fract_x 
_atom_site_fract_y 
_atom_site_fract_z 
_atom_site_charge 
C1          C  0.33459609  0.21362011  0.52139645     0.79300
N2          N  0.35152390  0.18291503  0.52409602    -0.79000
C3          C  0.36421338  0.16748891  0.49524067     0.81700
N4          N  0.35935844  0.18233492  0.46365239    -0.79000
C5          C  0.34237251  0.21296197  0.46075431     0.81800
N6          N  0.32996952  0.22824672  0.48980203    -0.80700
C7          C  0.14206486  0.40329638  0.52265896     0.79300
N8          N  0.11201972  0.42207958  0.52313292    -0.79000
C9          C  0.09566864  0.43194635  0.49310933     0.81700
N10         N  0.10991180  0.42228262  0.46180124    -0.79000
C11         C  0.14037548  0.40384407  0.46041105     0.81800
N12         N  0.15617972  0.39477041  0.49109686    -0.80700
C13         C  0.12934958  0.52527802  0.36071737     0.79300
N14         N  0.14255132  0.55556944  0.34904519    -0.79000
C15         C  0.12650178  0.58605930  0.35501292     0.81700
N16         N  0.09618190  0.58602741  0.37288703    -0.79000
C17         C  0.08281993  0.55578773  0.38513610     0.81800
N18         N  0.09935519  0.52554504  0.37889333    -0.80700
C19         C  0.31851513  0.52616495  0.16846074     0.79300
N20         N  0.31059601  0.55731865  0.18359427    -0.79000
C21         C  0.32061403  0.58823220  0.16895411     0.81700
N22         N  0.33924003  0.58752686  0.13835220    -0.79000
C23         C  0.34835810  0.55657061  0.12303120     0.81800
N24         N  0.33756790  0.52622709  0.13833903    -0.80700
C25         C  0.48175502  0.21703544  0.34789816     0.79300
N26         N  0.48291423  0.18570669  0.36426655    -0.79000
C27         C  0.45367705  0.16974203  0.37567166     0.81700
N28         N  0.42240740  0.18577060  0.37016255    -0.79000
C29         C  0.42124360  0.21811370  0.35462684     0.81800
N30         N  0.45097149  0.23294577  0.34311814    -0.80700
C31         C  0.45595798  0.41706665  0.16759235     0.79300
N32         N  0.45797474  0.43540453  0.13767432    -0.79000
C33         C  0.48855772  0.44392706  0.12309858     0.81700
N34         N  0.51844497  0.43329022  0.13861428    -0.79000
C35         C  0.51679573  0.41510585  0.16933337     0.81800
N36         N  0.48560294  0.40678946  0.18333309    -0.80700
C37         C  0.12205553  0.37745808  0.02093867     0.79300
N38         N  0.12996782  0.36298853  0.98934331    -0.79000
C39         C  0.12030578  0.37877442  0.95876769     0.81700
N40         N  0.10237747  0.40971471  0.96033814    -0.79000
C41         C  0.09333343  0.42406541  0.99185820     0.81800
N42         N  0.10351723  0.40763175  0.02161005    -0.80700
C43         C  0.31094750  0.18399442  0.96454958     0.79300
N44         N  0.34192388  0.16782664  0.96718368    -0.79000
C45         C  0.35772212  0.16445225  0.99840451     0.81700
N46         N  0.34277826  0.17764179  0.02728490    -0.79000
C47         C  0.31155972  0.19335301  0.02497828     0.81800
N48         N  0.29594809  0.19669258  0.99367204    -0.80700
O49         O  0.11411561  0.34130970  0.74570395    -0.89100
C50         C  0.24146822  0.24679231  0.62902418     1.10900
O51         O  0.19240263  0.33201968  0.74078873    -1.36900
O52         O  0.17196831  0.22103171  0.67252205    -0.90600
O53         O  0.14255912  0.37575786  0.78280682    -0.91300
O54         O  0.17416843  0.29147076  0.81362208    -0.80100
O55         O  0.14499504  0.28479388  0.70405674    -1.02200
C56         C  0.23766294  0.21477531  0.78169833     1.21000
O57         O  0.24963340  0.30003191  0.76799502    -1.37100
Mn58       Mn  0.24311089  0.32429970  0.71707126     1.82100
O59         O  0.20852240  0.22908156  0.78668383    -0.79200
O60         O  0.21031822  0.19484686  0.70730556    -0.88600
C61         C  0.30533007  0.28110323  0.69442639     1.12100
C62         C  0.18287574  0.19472531  0.68926970     1.06800
O63         O  0.27020644  0.37309160  0.73100973    -0.80100
O64         O  0.21791195  0.27355189  0.71021986    -1.33800
O65         O  0.24622615  0.37133655  0.78082468    -0.99300
C66         C  0.27478795  0.26405044  0.84487933     1.05500
Mn67       Mn  0.25087142  0.23022234  0.70794456     1.48600
O68         O  0.25142670  0.28719475  0.84569822    -0.88500
Mn69       Mn  0.19457118  0.37324702  0.77682517     1.49600
O70         O  0.15520471  0.38917238  0.69980502    -0.92400
C71         C  0.13013144  0.26488134  0.72385723     1.18700
C72         C  0.17345491  0.41420133  0.71136720     1.10800
Mn73       Mn  0.19715719  0.27963447  0.76277392     1.81000
O74         O  0.29075401  0.26153758  0.71465691    -0.97500
Mn75       Mn  0.15020379  0.33546269  0.70593880     1.49300
C76         C  0.11547508  0.36089813  0.77220770     1.07300
Mn77       Mn  0.29182607  0.26579372  0.76575610     1.49900
C78         C  0.33040166  0.32600130  0.79309617     1.10200
O79         O  0.20133137  0.33865008  0.81396845    -1.03300
O80         O  0.25298798  0.23060006  0.65502928    -0.93000
C81         C  0.17961560  0.32056104  0.82816536     1.21500
O82         O  0.25657422  0.22844922  0.75964713    -1.03700
O83         O  0.21675013  0.26823075  0.63029558    -0.91100
O84         O  0.32819131  0.30564530  0.76725330    -0.90700
O85         O  0.19287104  0.41157444  0.73804746    -0.90800
Mn86       Mn  0.18053155  0.27427777  0.66981520     1.47900
O87         O  0.29235000  0.31131012  0.69197373    -0.79200
C88         C  0.26830836  0.38473287  0.76204218     1.14500
O89         O  0.14579982  0.25839023  0.75216791    -0.78000
O90         O  0.23107557  0.34845721  0.66661318    -0.77600
Mn91       Mn  0.25173233  0.33051789  0.81293464     1.51100
O92         O  0.29472018  0.26017303  0.81903097    -0.89900
O93         O  0.18169434  0.32493468  0.66786089    -0.97500
O94         O  0.30565187  0.33152106  0.81394558    -0.92500
C95         C  0.20162929  0.34411953  0.65241976     1.12300
C96         C  0.10532344  0.02822154  0.33289103     0.79300
N97         N  0.09240652  0.02583913  0.36572025    -0.79000
C98         C  0.08741669  0.05495061  0.38491519     0.81700
N99         N  0.09686193  0.08639993  0.37188304    -0.79000
C100        C  0.10989178  0.08862800  0.33915824     0.81800
N101        N  0.11346404  0.05969466  0.31992034    -0.80700
C102        C  0.29815028  0.02729600  0.14602106     0.79300
N103        N  0.28253260  0.05849927  0.15190503    -0.79000
C104        C  0.29711430  0.08900844  0.14088349     0.81700
N105        N  0.32823599  0.08766131  0.12355947    -0.79000
C106        C  0.34417019  0.05651422  0.11691772     0.81800
N107        N  0.32900359  0.02659898  0.12870745    -0.80700
O108        O  0.26425200  0.81696846  0.14059388    -0.89100
C109        C  0.16714348  0.70029601  0.26728775     1.10900
O110        O  0.25590105  0.81122700  0.21853308    -1.36900
O111        O  0.14699776  0.74123111  0.19898300    -0.90600
O112        O  0.29580775  0.85774685  0.16700888    -0.91300
O113        O  0.21486521  0.88363092  0.20224025    -0.80100
O114        O  0.20921698  0.77415736  0.17243837    -1.02200
C115        C  0.13780553  0.85067782  0.26371041     1.21000
O116        O  0.22476131  0.83735438  0.27619225    -1.37100
Mn117      Mn  0.24794015  0.78599480  0.26883103     1.82100
O118        O  0.15224876  0.85609324  0.23445028    -0.79200
O119        O  0.11839091  0.77992367  0.23091399    -0.88600
C120        C  0.20268005  0.76172888  0.32808041     1.12100
C121        C  0.12001400  0.75828507  0.20589690     1.06800
O122        O  0.29787270  0.79799549  0.29373116    -0.80100
O123        O  0.19730881  0.78025180  0.24356949    -1.33800
O124        O  0.29701862  0.84819630  0.27115640    -0.99300
C125        C  0.19102107  0.91387231  0.30217473     1.05500
Mn126      Mn  0.15220651  0.77964953  0.27362744     1.48600
O127        O  0.21743308  0.91481818  0.28260858    -0.88500
Mn128      Mn  0.29648322  0.84866527  0.22034244     1.49600
O129        O  0.31202685  0.77091055  0.18192703    -0.92400
C130        C  0.18841005  0.79253786  0.15760470     1.18700
C131        C  0.33663188  0.78328409  0.19983150     1.10800
Mn132      Mn  0.20354066  0.83266370  0.22350485     1.81000
O133        O  0.18465089  0.78407018  0.31395859    -0.97500
Mn134      Mn  0.25929503  0.77664511  0.17639251     1.49300
C135        C  0.27972812  0.84613355  0.14061895     1.07300
Mn136      Mn  0.18901883  0.83574691  0.31722270     1.49900
C137        C  0.25279647  0.85666748  0.35851139     1.10200
O138        O  0.26224754  0.88422815  0.22937330    -1.03300
O139        O  0.14981554  0.72698929  0.27460907    -0.93000
C140        C  0.24319908  0.89880379  0.20872983     1.21500
O141        O  0.15262093  0.82972133  0.28189300    -1.03700
O142        O  0.19169708  0.70074813  0.24526518    -0.91100
O143        O  0.22739839  0.83586356  0.35532675    -0.90700
O144        O  0.33516725  0.81159453  0.21655757    -0.90800
Mn145      Mn  0.19890957  0.73939783  0.20740678     1.47900
O146        O  0.23358225  0.75928469  0.31726225    -0.79200
C147        C  0.31195984  0.82786646  0.29031969     1.14500
O148        O  0.18181307  0.82140917  0.17212842    -0.78000
O149        O  0.27170357  0.73512231  0.25661988    -0.77600
Mn150      Mn  0.25858612  0.87998759  0.27993086     1.51100
O151        O  0.18430890  0.88840636  0.32180590    -0.89900
O152        O  0.24898854  0.73773412  0.20731888    -0.97500
O153        O  0.26292033  0.87659557  0.33403872    -0.92500
C154        C  0.26782567  0.72165254  0.22667178     1.12300
C155        C  0.95966075  0.19942122  0.33689757     0.79300
N156        N  0.98936290  0.20516273  0.31875856    -0.79000
C157        C  0.02057160  0.19469747  0.33162641     0.81700
N158        N  0.02185250  0.17827588  0.36350736    -0.79000
C159        C  0.99209817  0.17230591  0.38176540     0.81800
N160        N  0.96166016  0.18307660  0.36812450    -0.80700
C161        C  0.98411269  0.37431135  0.13578079     0.79300
N162        N  0.95334177  0.35849649  0.14186457    -0.79000
C163        C  0.92365575  0.37177022  0.12851528     0.81700
N164        N  0.92470874  0.40237800  0.11024119    -0.79000
C165        C  0.95573799  0.41811759  0.10372853     0.81800
N166        N  0.98500638  0.40403277  0.11685341    -0.80700
O167        O  0.80371451  0.25824157  0.31822788    -0.89100
C168        C  0.60914481  0.25462748  0.27989524     1.10900
O169        O  0.75042449  0.30359753  0.27866159    -1.36900
O170        O  0.67935391  0.19513232  0.25071211    -0.90600
O171        O  0.83001610  0.29593582  0.28278256    -0.91300
O172        O  0.79218338  0.29072365  0.20351662    -0.80100
O173        O  0.73867045  0.23139264  0.28696836    -1.02200
C174        C  0.70337480  0.26242835  0.16387143     1.21000
O175        O  0.72212433  0.33350161  0.21932790    -1.37100
Mn176      Mn  0.69947474  0.32742067  0.27090006     1.82100
O177        O  0.73212364  0.25755077  0.17819443    -0.79200
O178        O  0.65006356  0.22133505  0.20817898    -0.88600
C179        C  0.63563915  0.34717287  0.23044300     1.12100
C180        C  0.66090359  0.19422158  0.22327897     1.06800
O181        O  0.71137133  0.37671092  0.29413752    -0.80100
O182        O  0.69105775  0.27555700  0.24942429    -1.33800
O183        O  0.76142650  0.37677574  0.27082402    -0.99300
C184        C  0.75454180  0.35694256  0.13864308     1.05500
Mn185      Mn  0.65010508  0.27456975  0.21336551     1.48600
O186        O  0.76514581  0.37241867  0.16556303    -0.88500
Mn187      Mn  0.79386363  0.33649235  0.27945694     1.49600
O188        O  0.75712322  0.30551098  0.35868402    -0.92400
C189        C  0.75831456  0.21673718  0.26733053     1.18700
C190        C  0.77743431  0.33148367  0.35999191     1.10800
Mn191      Mn  0.74286531  0.28125541  0.22724647     1.81000
O192        O  0.64921062  0.32662801  0.20989602    -0.97500
Mn193      Mn  0.75045240  0.26768684  0.32014630     1.49300
C194        C  0.83042078  0.26883506  0.30191025     1.07300
Mn195      Mn  0.68834011  0.33480702  0.17632018     1.49900
C196        C  0.69446061  0.41507120  0.19285367     1.10200
O197        O  0.79375828  0.33941093  0.22826725    -1.03300
O198        O  0.61091054  0.27070384  0.25091506    -0.93000
C199        C  0.80684207  0.31973724  0.20737151     1.21500
O200        O  0.68466025  0.28375649  0.17727716    -1.03700
O201        O  0.63522330  0.24027865  0.29399523    -0.91100
O202        O  0.68279158  0.38891393  0.17628166    -0.90700
O203        O  0.79382016  0.34233581  0.33337712    -0.90800
Mn204      Mn  0.68828194  0.23519559  0.28649892     1.47900
O205        O  0.65038947  0.35151215  0.25947602    -0.79200
C206        C  0.74093780  0.39030871  0.29147856     1.14500
O207        O  0.76441465  0.23132776  0.23861707    -0.78000
O208        O  0.67643632  0.31822841  0.32074760    -0.77600
Mn209      Mn  0.75828997  0.37433355  0.21835321     1.51100
O210        O  0.72781857  0.33753289  0.13874135    -0.89900
O211        O  0.70044583  0.26937966  0.32131798    -0.97500
O212        O  0.72083184  0.41341491  0.21272625    -0.92500
C213        C  0.68137988  0.28962619  0.33580223     1.12300
C214        C  0.64427272  0.19013196  0.98598682     0.79300
N215        N  0.61402329  0.17239590  0.98610888    -0.79000
C216        C  0.59871691  0.16261569  0.01626128     0.81700
N217        N  0.61363042  0.17135438  0.04719994    -0.79000
C218        C  0.64450045  0.18876080  0.04729832     0.81800
N219        N  0.65931405  0.19848303  0.01673933    -0.80700
C220        C  0.82667580  0.38792958  0.01076422     0.79300
N221        N  0.84293430  0.41919292  0.00947287    -0.79000
C222        C  0.85182438  0.43443730  0.97893594     0.81700
N223        N  0.84388965  0.41779658  0.94838658    -0.79000
C224        C  0.82838580  0.38548128  0.94948622     0.81800
N225        N  0.81960728  0.37129193  0.98061758    -0.80700
C226        C  0.93653294  0.20548372  0.66770605     0.79300
N227        N  0.93832731  0.18676151  0.63716943    -0.79000
C228        C  0.96963994  0.17721545  0.62313098     0.81700
N229        N  0.99926644  0.18783906  0.63955601    -0.79000
C230        C  0.99827012  0.20679007  0.66974219     0.81800
N231        N  0.96678095  0.21537324  0.68358344    -0.80700
C232        C  0.00258803  0.38960426  0.86172275     0.79300
N233        N  0.00306822  0.41967059  0.88017996    -0.79000
C234        C  0.97326838  0.43581222  0.88857289     0.81700
N235        N  0.94273183  0.42177747  0.87862069    -0.79000
C236        C  0.94194367  0.39174025  0.86008451     0.81800
N237        N  0.97195443  0.37604964  0.85148098    -0.80700
O238        O  0.79648164  0.37091293  0.78928488    -0.89100
C239        C  0.60739237  0.32170465  0.80632782     1.10900
O240        O  0.74380451  0.33027030  0.74905647    -1.36900
O241        O  0.68455222  0.29092281  0.85619103    -0.90600
O242        O  0.82240422  0.33090764  0.75614627    -0.91300
O243        O  0.79023630  0.25529309  0.75363489    -0.80100
O244        O  0.73639706  0.33462162  0.82012452    -1.02200
C245        C  0.70235136  0.21034341  0.78487637     1.21000
O246        O  0.71592241  0.27383549  0.71760505    -1.37100
Mn247      Mn  0.69221905  0.32395149  0.72704247     1.82100
O248        O  0.73085839  0.22583237  0.78948926    -0.79200
O249        O  0.65210514  0.24988102  0.83143188    -0.88600
C250        C  0.62838834  0.28140359  0.70816706     1.12100
C251        C  0.66876062  0.26203281  0.85731562     1.06800
O252        O  0.70365367  0.35216629  0.67861200    -0.80100
O253        O  0.68728133  0.29790451  0.77754908    -1.33800
O254        O  0.75228097  0.32822992  0.67913755    -0.99300
C255        C  0.74796178  0.19964377  0.68574320     1.05500
Mn256      Mn  0.64761066  0.25974331  0.77800937     1.48600
O257        O  0.75184622  0.22550840  0.66574387    -0.88500
Mn258      Mn  0.78645869  0.33179705  0.71553182     1.49600
O259        O  0.74608005  0.40983322  0.74717566    -0.92400
C260        C  0.75878001  0.31679172  0.83399469     1.18700
C261        C  0.77049767  0.41091003  0.72527376     1.10800
Mn262      Mn  0.73983372  0.27757862  0.76886604     1.81000
O263        O  0.64402483  0.26133103  0.72700446    -0.97500
Mn264      Mn  0.74339270  0.37144409  0.78482315     1.49300
C265        C  0.82261536  0.35298057  0.78080696     1.07300
Mn266      Mn  0.68265399  0.23096597  0.71520349     1.49900
C267        C  0.68042587  0.25872177  0.63853412     1.10200
O268        O  0.78777390  0.28181872  0.70587960    -1.03300
O269        O  0.60824458  0.29559463  0.78620793    -0.93000
C270        C  0.80317470  0.26061177  0.72357426     1.21500
O271        O  0.68196398  0.22522414  0.76581038    -1.03700
O272        O  0.63340245  0.33478395  0.82116150    -0.91100
O273        O  0.67523118  0.23573847  0.66180557    -0.90700
O274        O  0.78807833  0.38487608  0.71635103    -0.90800
Mn275      Mn  0.68552113  0.33147116  0.82063570     1.47900
O276        O  0.64192653  0.31138091  0.70426262    -0.79200
C277        C  0.73416002  0.35058756  0.66659683     1.14500
O278        O  0.76483192  0.28789536  0.81933024    -0.78000
O279        O  0.66799324  0.37329297  0.74089791    -0.77600
Mn280      Mn  0.74813367  0.27826334  0.67383391     1.51100
O281        O  0.72433734  0.19803746  0.70857410    -0.89900
O282        O  0.69249466  0.37230063  0.78986970    -0.97500
O283        O  0.70534410  0.28040238  0.64030483    -0.92500
C284        C  0.67218352  0.38710424  0.77055214     1.12300
C285        C  0.11774414  0.71160138  0.98470243     0.79300
N286        N  0.10092843  0.68081411  0.98745081    -0.79000
C287        C  0.09294247  0.66646305  0.01863556     0.81700
N288        N  0.10242831  0.68382473  0.04849030    -0.79000
C289        C  0.11866510  0.71584818  0.04605564     0.81800
N290        N  0.12657058  0.72892187  0.01411253    -0.80700
C291        C  0.29829707  0.92047835  0.01225734     0.79300
N292        N  0.28294412  0.90947191  0.98250229    -0.79000
C293        C  0.29673048  0.91727917  0.95088003     0.81700
N294        N  0.32729664  0.93539822  0.94892930    -0.79000
C295        C  0.34261749  0.94670562  0.97898228     0.81800
N296        N  0.32795560  0.93887454  0.00996284    -0.80700
C297        C  0.10480677  0.00730157  0.67680037     0.79300
N298        N  0.11439938  0.03865365  0.69002788    -0.79000
C299        C  0.10475482  0.06845267  0.67388253     0.81700
N300        N  0.08541944  0.06651160  0.64464818    -0.79000
C301        C  0.07695358  0.03589330  0.62998610     0.81800
N302        N  0.08747324  0.00583981  0.64560869    -0.80700
C303        C  0.31287047  0.04133412  0.85191917     0.79300
N304        N  0.29522279  0.07100343  0.84513303    -0.79000
C305        C  0.30825725  0.10255602  0.85447285     0.81700
N306        N  0.34039281  0.10454561  0.86985630    -0.79000
C307        C  0.35787554  0.07447806  0.87733827     0.81800
N308        N  0.34365490  0.04369459  0.86826393    -0.80700
O309        O  0.33110960  0.83936615  0.75109340    -0.89100
C310        C  0.18763394  0.74367564  0.85613412     1.10900
O311        O  0.25094391  0.83218957  0.75028174    -1.36900
O312        O  0.26056647  0.71535115  0.81770877    -0.90600
O313        O  0.30679905  0.87510465  0.71241343    -0.91300
O314        O  0.26870243  0.79389565  0.67736821    -0.80100
O315        O  0.29322616  0.78006314  0.78766077    -1.02200
C316        C  0.20569205  0.71795577  0.70314668     1.21000
O317        O  0.19267706  0.80339429  0.71815241    -1.37100
Mn318      Mn  0.19893266  0.82414784  0.77070245     1.82100
O319        O  0.23464382  0.73256280  0.69977845    -0.79200
O320        O  0.22358160  0.69166488  0.77992626    -0.88600
C321        C  0.13617766  0.78294697  0.78815259     1.12100
C322        C  0.24953624  0.68963410  0.80006741     1.06800
O323        O  0.17524463  0.87397800  0.76116531    -0.80100
O324        O  0.22090669  0.77203124  0.77692411    -1.33800
O325        O  0.20092696  0.87696148  0.71239308    -0.99300
C326        C  0.16806042  0.77570105  0.63540172     1.05500
Mn327      Mn  0.18581508  0.73005037  0.77597699     1.48600
O328        O  0.18799217  0.80191597  0.63758362    -0.88500
Mn329      Mn  0.25329951  0.87585760  0.71721669     1.49600
O330        O  0.28893317  0.88501405  0.79659175    -0.92400
C331        C  0.30724204  0.76039898  0.76652103     1.18700
C332        C  0.27429846  0.91217717  0.78518311     1.10800
Mn333      Mn  0.24436057  0.78122200  0.72580540     1.81000
O334        O  0.14959416  0.76403847  0.76676250    -0.97500
Mn335      Mn  0.29114998  0.83223101  0.78750386     1.49300
C336        C  0.33301374  0.85975791  0.72502883     1.07300
Mn337      Mn  0.15083679  0.76835103  0.71568239     1.49900
C338        C  0.11112534  0.83234379  0.69255036     1.10200
O339        O  0.24374551  0.84327149  0.67673368    -1.03300
O340        O  0.17733476  0.72842425  0.82888591    -0.93000
C341        C  0.26472681  0.82317257  0.66322515     1.21500
O342        O  0.18547682  0.73107621  0.72409523    -1.03700
O343        O  0.21370565  0.76388027  0.85662769    -0.91100
O344        O  0.11281421  0.80608538  0.71247715    -0.90700
O345        O  0.25643193  0.91248934  0.75739676    -0.90800
Mn346      Mn  0.25390192  0.76925247  0.82032751     1.47900
O347        O  0.14984283  0.81229324  0.79274507    -0.79200
C348        C  0.17985745  0.88974465  0.73273049     1.14500
O349        O  0.29354292  0.75776523  0.73685357    -0.78000
O350        O  0.20856501  0.84600851  0.82104380    -0.77600
Mn351      Mn  0.19121267  0.83928956  0.67680497     1.51100
O352        O  0.15186248  0.76357421  0.66155885    -0.89900
O353        O  0.25649454  0.82025544  0.82277983    -0.97500
O354        O  0.13748111  0.84471154  0.67699025    -0.92500
C355        C  0.23663869  0.84033278  0.83658157     1.12300
C356        C  0.94155827  0.70825879  0.13957603     0.79300
N357        N  0.97171360  0.72562097  0.14181891    -0.79000
C358        C  0.00145874  0.71097375  0.13115202     0.81700
N359        N  0.00057299  0.67831271  0.11767726    -0.79000
C360        C  0.97022665  0.66080446  0.11493788     0.81800
N361        N  0.94067545  0.67552913  0.12662218    -0.80700
C362        C  0.94443893  0.90265411  0.32612048     0.79300
N363        N  0.94556481  0.92072781  0.35677920    -0.79000
C364        C  0.97614675  0.93010340  0.37196410     0.81700
N365        N  0.00643214  0.92042847  0.35599592    -0.79000
C366        C  0.00613501  0.90283600  0.32470705     0.81800
N367        N  0.97492289  0.89422784  0.31009223    -0.80700
C368        C  0.82512117  0.04045134  0.33184407     0.79300
N369        N  0.84705896  0.03963281  0.35927788    -0.79000
C370        C  0.86037114  0.06955982  0.37242820     0.81700
N371        N  0.85120999  0.10074379  0.35793419    -0.79000
C372        C  0.82957602  0.10124602  0.32973790     0.81800
N373        N  0.81617829  0.07115336  0.31754704    -0.80700
C374        C  0.62687860  0.00384119  0.15099922     0.79300
N375        N  0.59680120  0.00308487  0.13189653    -0.79000
C376        C  0.57736609  0.03263003  0.12889489     0.81700
N377        N  0.58786715  0.06192182  0.14540804    -0.79000
C378        C  0.61714698  0.06269467  0.16477063     0.81800
N379        N  0.63658095  0.03364968  0.16711032    -0.80700
O380        O  0.64711759  0.76027362  0.17945254    -0.89100
C381        C  0.83501112  0.75482364  0.22593960     1.10900
O382        O  0.69741188  0.80307481  0.22160880    -1.36900
O383        O  0.76005143  0.69826153  0.26024041    -0.90600
O384        O  0.61916660  0.79301771  0.21789498    -0.91300
O385        O  0.65172932  0.79342883  0.29662320    -0.80100
O386        O  0.70733527  0.73277886  0.21614540    -1.02200
C387        C  0.74155491  0.76622721  0.34096805     1.21000
O388        O  0.72427055  0.83457020  0.27962698    -1.37100
Mn389      Mn  0.74815432  0.82730351  0.22851204     1.82100
O390        O  0.71319308  0.76070274  0.32536568    -0.79200
O391        O  0.79493248  0.72496073  0.29791367    -0.88600
C392        C  0.81147792  0.84850250  0.27134111     1.12100
C393        C  0.77841906  0.69835078  0.28768376     1.06800
O394        O  0.73558555  0.87636039  0.20247253    -0.80100
O395        O  0.75497538  0.77684452  0.25347507    -1.33800
O396        O  0.68579672  0.87434456  0.22616582    -0.99300
C397        C  0.68797346  0.85765862  0.35573363     1.05500
Mn398      Mn  0.79549793  0.77827598  0.29054448     1.48600
O399        O  0.68199003  0.87804287  0.33069366    -0.88500
Mn400      Mn  0.65335694  0.83445457  0.21934349     1.49600
O401        O  0.69621971  0.80499791  0.14173990    -0.92400
C402        C  0.68604911  0.71782068  0.23367330     1.18700
C403        C  0.67260298  0.82771184  0.14017574     1.10800
Mn404      Mn  0.70264162  0.78236584  0.27422989     1.81000
O405        O  0.79658344  0.82917394  0.29171980    -0.97500
Mn406      Mn  0.69952456  0.76720026  0.18052244     1.49300
C407        C  0.62031502  0.76790404  0.19659132     1.07300
Mn408      Mn  0.75740757  0.83725098  0.32308873     1.49900
C409        C  0.75132296  0.91602640  0.30152697     1.10200
O410        O  0.65145869  0.84108819  0.27009480    -1.03300
O411        O  0.83358353  0.77459574  0.25233006    -0.93000
C412        C  0.63688918  0.82224739  0.29095899     1.21500
O413        O  0.76136934  0.78663867  0.32690084    -1.03700
O414        O  0.81016276  0.73632411  0.21508636    -0.91100
O415        O  0.76197145  0.89121663  0.32056199    -0.90700
O416        O  0.65381316  0.83605992  0.16568382    -0.90800
Mn417      Mn  0.75727460  0.73413374  0.21960418     1.47900
O418        O  0.79783418  0.85159119  0.24129202    -0.79200
C419        C  0.70509995  0.88820633  0.20468274     1.14500
O420        O  0.67966728  0.73156662  0.26289275    -0.78000
O421        O  0.77242470  0.81466755  0.17799925    -0.77600
Mn422      Mn  0.68824770  0.87555000  0.27809750     1.51100
O423        O  0.71505050  0.83905509  0.35723049    -0.89900
O424        O  0.74934323  0.76539884  0.18063803    -0.97500
O425        O  0.72609559  0.91356877  0.28058246    -0.92500
C426        C  0.76867466  0.78453896  0.16488707     1.12300
C427        C  0.62748847  0.91496991  0.03160585     0.79300
N428        N  0.64479679  0.90808422  0.00206341    -0.79000
C429        C  0.63037243  0.91410130  0.97078328     0.81700
N430        N  0.59822671  0.92780149  0.96877018    -0.79000
C431        C  0.58107607  0.93614899  0.99835282     0.81800
N432        N  0.59514336  0.92851025  0.02988663    -0.80700
C433        C  0.82278954  0.72129280  0.97240607     0.79300
N434        N  0.81327549  0.73570377  0.00346728    -0.79000
C435        C  0.82146071  0.72034873  0.03460778     0.81700
N436        N  0.84000930  0.68973554  0.03419204    -0.79000
C437        C  0.85030901  0.67493744  0.00331882     0.81800
N438        N  0.84141656  0.69107166  0.97287000    -0.80700
C439        C  0.83929356  0.08672756  0.65830570     0.79300
N440        N  0.83385671  0.05631250  0.67511866    -0.79000
C441        C  0.84116545  0.02569368  0.65980331     0.81700
N442        N  0.85465473  0.02532280  0.62717444    -0.79000
C443        C  0.86153903  0.05573073  0.61070524     0.81800
N444        N  0.85320218  0.08623677  0.62599027    -0.80700
C445        C  0.64496467  0.08227560  0.84761629     0.79300
N446        N  0.66104236  0.05118122  0.84283944    -0.79000
C447        C  0.64672027  0.02087030  0.85447601     0.81700
N448        N  0.61529903  0.02207387  0.87128177    -0.79000
C449        C  0.59884452  0.05316131  0.87715584     0.81800
N450        N  0.61387475  0.08310639  0.86477752    -0.80700
C451        C  0.98367739  0.90134429  0.65703989     0.79300
N452        N  0.95438932  0.89970586  0.67628064    -0.79000
C453        C  0.92479398  0.91472751  0.66461565     0.81700
N454        N  0.92445452  0.93061807  0.63241565    -0.79000
C455        C  0.95427679  0.93263166  0.61324940     0.81800
N456        N  0.98336481  0.91787600  0.62591778    -0.80700
C457        C  0.96073345  0.72226900  0.85899447     0.79300
N458        N  0.96018288  0.69377704  0.87981589    -0.79000
C459        C  0.98964690  0.67980217  0.89251765     0.81700
N460        N  0.02065043  0.69463095  0.88421144    -0.79000
C461        C  0.02139439  0.72417784  0.86432916     0.81800
N462        N  0.99149941  0.73729609  0.85136752    -0.80700
N463        N  0.95648280  0.97977890  0.44905068    -0.07000
N464        N  0.94609858  0.96371633  0.42021482    -0.59200
N465        N  0.98046630  0.97311607  0.53451131    -0.06700
N466        N  0.98814023  0.95671123  0.56374073    -0.61300
N467        N  0.94678351  0.97647094  0.53148390    -0.06300
N468        N  0.93085956  0.96253177  0.55890766    -0.59100
N469        N  0.99021752  0.97686082  0.45252932    -0.06000
N470        N  0.00331447  0.95884777  0.42597604    -0.61600
C471        C  0.97546728  0.95064048  0.40576224     0.95100
C472        C  0.95711368  0.95009187  0.57876596     0.94900
N473        N  0.04258911  0.06021176  0.54834026    -0.07200
N474        N  0.05543501  0.06867289  0.57898433    -0.59700
N475        N  0.04939727  0.03241662  0.46478447    -0.05400
N476        N  0.06297383  0.02227443  0.43495586    -0.61000
N477        N  0.05218407  0.06648850  0.46812449    -0.07300
N478        N  0.06774785  0.07999746  0.44067040    -0.60000
N479        N  0.04062128  0.02602304  0.54545533    -0.05000
N480        N  0.05220365  0.01075180  0.57426683    -0.61100
Mn481      Mn  0.01630161  0.00107485  0.49922155     1.18400
C482        C  0.06126037  0.03779336  0.59495354     0.97200
C483        C  0.07436110  0.05220574  0.42040846     0.97900
N484        N  0.89750529  0.03976961  0.52859188    -0.07300
N485        N  0.88198597  0.02729138  0.55660295    -0.63600
N486        N  0.90796636  0.07909285  0.45080321    -0.06100
N487        N  0.89303360  0.09418348  0.42359975    -0.64300
N488        N  0.90562211  0.04493137  0.44830083    -0.06800
N489        N  0.88914774  0.03622940  0.41949867    -0.63900
N490        N  0.90008883  0.07392360  0.53066683    -0.05700
N491        N  0.88629138  0.08529617  0.55978619    -0.64500
Mn492      Mn  0.92548418  0.00941480  0.48895966     1.10700
C493        C  0.87512392  0.05603639  0.57551951     0.98400
C494        C  0.88157252  0.06705263  0.40425742     0.98500
N495        N  0.00219462  0.12945958  0.46421211    -0.06800
N496        N  0.01751118  0.14358295  0.43642663    -0.62200
N497        N  0.95856664  0.12902560  0.54296613    -0.06100
N498        N  0.94476835  0.14725606  0.56894962    -0.58900
N499        N  0.99220275  0.12625352  0.54725480    -0.07400
N500        N  0.00182592  0.14278164  0.57619641    -0.61700
N501        N  0.96843228  0.13209576  0.46126700    -0.06400
N502        N  0.96008708  0.14803284  0.43204374    -0.58900
Mn503      Mn  0.02361604  0.09644120  0.50747837     1.20200
Mn504      Mn  0.93297028  0.10439398  0.49635870     1.10100
Cl505      Cl  0.97468683  0.05281028  0.49793980    -0.86900
C506        C  0.99068038  0.15529593  0.41666172     0.95400
C507        C  0.97197168  0.15590231  0.58977486     0.95200
N508        N  0.94669198  0.50126168  0.06470492    -0.07000
N509        N  0.93167330  0.47253490  0.07657372    -0.59200
N510        N  0.98569026  0.57915942  0.07747985    -0.06700
N511        N  0.99806744  0.60688930  0.09353508    -0.61300
N512        N  0.95171435  0.58120593  0.07504037    -0.06300
N513        N  0.94045459  0.61002086  0.08963752    -0.59100
N514        N  0.98065959  0.49877465  0.06711959    -0.06000
N515        N  0.98920940  0.46840777  0.08069314    -0.61600
C516        C  0.95853696  0.45228983  0.08638671     0.95100
C517        C  0.96954859  0.62560537  0.10107189     0.94900
N518        N  0.05181551  0.58741904  0.99374142    -0.07200
N519        N  0.06811362  0.61660299  0.98589139    -0.59700
N520        N  0.04588656  0.50104331  0.01623726    -0.05400
N521        N  0.06132627  0.47144592  0.02524967    -0.61000
N522        N  0.04846481  0.50569923  0.98238471    -0.07300
N523        N  0.06547495  0.47942358  0.96777673    -0.60000
N524        N  0.04923725  0.58398383  0.02774187    -0.05000
N525        N  0.06380665  0.61123796  0.04367059    -0.61100
Mn526      Mn  0.01626559  0.54032461  0.04851170     1.18400
C527        C  0.07574989  0.63140797  0.01699948     0.97200
C528        C  0.07354121  0.45797332  0.99476114     0.97900
N529        N  0.89684879  0.59432188  0.01577945    -0.07300
N530        N  0.87900347  0.62056791  0.02952832    -0.63600
N531        N  0.89590615  0.51622072  0.97098284    -0.06100
N532        N  0.88108931  0.48932512  0.95486777    -0.64300
N533        N  0.89321146  0.51263594  0.00492292    -0.06800
N534        N  0.87654208  0.48363007  0.01262828    -0.63900
N535        N  0.89974424  0.59849049  0.98185285    -0.05700
N536        N  0.88384199  0.62750557  0.97196459    -0.64500
Mn537      Mn  0.92121979  0.54733822  0.04115212     1.10700
C538        C  0.87088985  0.64133768  0.00188437     0.98400
C539        C  0.86888293  0.46922740  0.98137659     0.98500
N540        N  0.99326237  0.51718661  0.92470676    -0.06800
N541        N  0.00393406  0.48697775  0.91261276    -0.62200
N542        N  0.96472463  0.60022016  0.93099653    -0.06100
N543        N  0.95619010  0.63029436  0.91683481    -0.58900
N544        N  0.99865202  0.59773987  0.93340733    -0.07400
N545        N  0.01373548  0.62613406  0.92088268    -0.61700
N546        N  0.95932350  0.51955249  0.92211023    -0.06400
N547        N  0.94644219  0.49089615  0.90823218    -0.58900
Mn548      Mn  0.02394838  0.55216019  0.95752762     1.20200
Mn549      Mn  0.92917405  0.55910203  0.95014154     1.10100
Cl550      Cl  0.97265320  0.54986627  0.99942507    -0.86900
C551        C  0.97451713  0.47097654  0.90258308     0.95400
C552        C  0.98688108  0.64621763  0.91078709     0.95200
N553        N  0.44075817  0.13121407  0.98483712    -0.07000
N554        N  0.41259734  0.14543096  0.97177397    -0.59200
N555        N  0.51753568  0.12069384  0.02539441    -0.06700
N556        N  0.54523532  0.13407214  0.04082696    -0.61300
N557        N  0.52030057  0.12350920  0.99123544    -0.06300
N558        N  0.54970111  0.13869019  0.98285043    -0.59100
N559        N  0.43801889  0.12844208  0.01898226    -0.06000
N560        N  0.40818202  0.14090804  0.02971982    -0.61600
C561        C  0.39277398  0.15130362  0.00004350     0.95100
C562        C  0.56499620  0.14511122  0.01382439     0.94900
N563        N  0.50248754  0.02518177  0.07500616    -0.07200
N564        N  0.52752500  0.00899647  0.09238316    -0.59700
N565        N  0.42529846  0.06896611  0.07270634    -0.05400
N566        N  0.39873553  0.08246701  0.08998568    -0.61000
N567        N  0.42132119  0.03512717  0.06934466    -0.07300
N568        N  0.39210806  0.02496691  0.08458427    -0.60000
N569        N  0.50570378  0.05908035  0.07832777    -0.05000
N570        N  0.53249288  0.06673043  0.09815266    -0.61100
Mn571      Mn  0.47186075  0.09529825  0.04976271     1.18400
C572        C  0.54597784  0.03544134  0.10683934     0.97200
C573        C  0.37803404  0.05475598  0.09740956     0.97900
N574        N  0.52116530  0.07361657  0.92520510    -0.07300
N575        N  0.55016646  0.08416820  0.90968419    -0.63600
N576        N  0.43645365  0.04918836  0.91707886    -0.06100
N577        N  0.40760506  0.04138168  0.90052888    -0.64300
N578        N  0.43936591  0.08309512  0.92050215    -0.06800
N579        N  0.41222421  0.09904758  0.90634007    -0.63900
N580        N  0.51773132  0.03965619  0.92214810    -0.05700
N581        N  0.54446811  0.02656902  0.90471274    -0.64500
Mn582      Mn  0.48082182  0.10411199  0.95468332     1.10700
C583        C  0.56474443  0.05458473  0.89686422     0.98400
C584        C  0.39267246  0.07249748  0.89373536     0.98500
N585        N  0.42173990  0.98511096  0.00332045    -0.06800
N586        N  0.39203135  0.97057074  0.01161728    -0.62200
N587        N  0.50431371  0.97898619  0.97654500    -0.06100
N588        N  0.53306047  0.96383556  0.96622048    -0.58900
N589        N  0.50076250  0.97597524  0.01060869    -0.07400
N590        N  0.52709963  0.95884987  0.02403080    -0.61700
N591        N  0.42475134  0.98749444  0.96914800    -0.06400
N592        N  0.39684274  0.97439266  0.95365550    -0.58900
Mn593      Mn  0.46122796  0.00417209  0.04024052     1.20200
Mn594      Mn  0.47091228  0.01284916  0.94517214     1.10100
Cl595      Cl  0.47141615  0.05403227  0.99747335    -0.86900
C596        C  0.37668776  0.96400270  0.98066971     0.95400
C597        C  0.54677716  0.95135771  0.99606948     0.95200
O598        O  0.75920510  0.69781414  0.74429446    -0.89100
C599        C  0.67442087  0.82561881  0.86527026     1.10900
O600        O  0.75523453  0.77523502  0.75403268    -1.36900
O601        O  0.64362964  0.75731429  0.82171786    -0.90600
O602        O  0.79806527  0.72435140  0.71058743    -0.91300
O603        O  0.71539581  0.76118089  0.67984757    -0.80100
O604        O  0.70601518  0.72786672  0.78905229    -1.02200
C605        C  0.64118129  0.82528353  0.71416838     1.21000
O606        O  0.72614888  0.83454035  0.72775616    -1.37100
Mn607      Mn  0.74881269  0.82602938  0.77914378     1.82100
O608        O  0.65451470  0.79580883  0.70833589    -0.79200
O609        O  0.61990941  0.79663192  0.78637400    -0.88600
C610        C  0.70765142  0.89017700  0.80265297     1.12100
C611        C  0.61806426  0.76920094  0.80449208     1.06800
O612        O  0.79850841  0.85172302  0.76736828    -0.80100
O613        O  0.69798785  0.80187721  0.78450465    -1.33800
O614        O  0.79525746  0.82732961  0.71899718    -0.99300
C615        C  0.69504796  0.86180545  0.64947606     1.05500
Mn616      Mn  0.65579309  0.83615398  0.78674713     1.48600
O617        O  0.72027649  0.84076150  0.64867202    -0.88500
Mn618      Mn  0.79678995  0.77714386  0.71878019     1.49600
O619        O  0.80972849  0.73235169  0.79145630    -0.92400
C620        C  0.68584416  0.71452606  0.76858438     1.18700
C621        C  0.83564011  0.75026053  0.78190717     1.10800
Mn622      Mn  0.70396286  0.78240205  0.73157613     1.81000
O623        O  0.68793071  0.87685409  0.78120813    -0.97500
Mn624      Mn  0.75639102  0.73107429  0.78656474     1.49300
C625        C  0.77906089  0.69851745  0.71805860     1.07300
Mn626      Mn  0.69238803  0.87718377  0.72913174     1.49900
C627        C  0.75571938  0.91530305  0.70509560     1.10200
O628        O  0.76374009  0.78588230  0.68137638    -1.03300
O629        O  0.65653045  0.83729939  0.84032013    -0.93000
C630        C  0.74467364  0.76610037  0.66578562     1.21500
O631        O  0.65555597  0.84297296  0.73607724    -1.03700
O632        O  0.69402321  0.79947791  0.86342134    -0.91100
O633        O  0.73162070  0.91453525  0.72743495    -0.90700
O634        O  0.83412347  0.77296963  0.75785983    -0.90800
Mn635      Mn  0.69744576  0.76316257  0.82408217     1.47900
O636        O  0.73703829  0.87572025  0.80579632    -0.79200
C637        C  0.81027084  0.84833812  0.73671099     1.14500
O638        O  0.68038961  0.73138527  0.74066702    -0.78000
O639        O  0.77158885  0.81137249  0.82879439    -0.77600
Mn640      Mn  0.75976862  0.83624200  0.68512475     1.51100
O641        O  0.68714195  0.87905022  0.67627181    -0.89900
O642        O  0.74827438  0.76113811  0.82674236    -0.97500
O643        O  0.76470032  0.88936454  0.68719316    -0.92500
C644        C  0.76794759  0.78110716  0.84177952     1.12300
C645        C  0.33362453  0.88360382  0.54489597     0.79300
N646        N  0.32077367  0.87007701  0.51506729    -0.79000
C647        C  0.32823883  0.88480463  0.48399480     0.81700
N648        N  0.34843949  0.91369781  0.48285462    -0.79000
C649        C  0.36117950  0.92791626  0.51256743     0.81800
N650        N  0.35323679  0.91317328  0.54390108    -0.80700
C651        C  0.12415882  0.71356423  0.50608727     0.79300
N652        N  0.14079885  0.71789848  0.47538787    -0.79000
C653        C  0.12715817  0.70518713  0.44541092     0.81700
N654        N  0.09585537  0.68818848  0.44616683    -0.79000
C655        C  0.07910878  0.68347993  0.47726367     0.81800
N656        N  0.09351676  0.69634321  0.50678635    -0.80700
C657        C  0.81235746  0.40314930  0.48866979     0.79300
N658        N  0.79413449  0.39976663  0.51878300    -0.79000
C659        C  0.80679450  0.41270843  0.54933698     0.81700
N660        N  0.83856989  0.42907426  0.54955163    -0.79000
C661        C  0.85675167  0.43275698  0.51913886     0.81800
N662        N  0.84333755  0.41952521  0.48950448    -0.80700
C663        C  0.60402388  0.23083540  0.51435653     0.79300
N664        N  0.58798172  0.19944573  0.51290400    -0.79000
C665        C  0.58187477  0.18324880  0.48217190     0.81700
N666        N  0.59303167  0.19844154  0.45203499    -0.79000
C667        C  0.60898601  0.23029935  0.45325793     0.81800
N668        N  0.61444991  0.24599434  0.48430394    -0.80700
C669        C  0.60359353  0.88721032  0.47072138     0.79300
N670        N  0.61356794  0.87460250  0.50198510    -0.79000
C671        C  0.61038827  0.89386432  0.53119297     0.81700
N672        N  0.59679269  0.92628931  0.52896986    -0.79000
C673        C  0.58626197  0.93909147  0.49792996     0.81800
N674        N  0.59012558  0.91974666  0.46887165    -0.80700
C675        C  0.80212700  0.71074864  0.53353328     0.79300
N676        N  0.78664223  0.72010871  0.50300697    -0.79000
C677        C  0.79990268  0.71033464  0.47159279     0.81700
N678        N  0.82928952  0.69038654  0.47084197    -0.79000
C679        C  0.84560751  0.68045456  0.50107564     0.81800
N680        N  0.83193921  0.69127426  0.53231275    -0.80700
C681        C  0.44000426  0.41135706  0.83997571     0.79300
N682        N  0.46995248  0.40442641  0.82362762    -0.79000
C683        C  0.50037647  0.41438610  0.83745727     0.81700
N684        N  0.50081666  0.43227459  0.86778121    -0.79000
C685        C  0.47093886  0.43972741  0.88437346     0.81800
N686        N  0.44032933  0.42820015  0.87111766    -0.80700
C687        C  0.50055511  0.22949987  0.64105320     0.79300
N688        N  0.46929927  0.24418875  0.64855036    -0.79000
C689        C  0.43892345  0.22829644  0.63933402     0.81700
N690        N  0.44042276  0.19677691  0.62235618    -0.79000
C691        C  0.47148990  0.18162489  0.61424347     0.81800
N692        N  0.50123870  0.19814048  0.62416790    -0.80700
C693        C  0.44480627  0.87884232  0.34910970     0.79300
N694        N  0.47561726  0.86365437  0.34062153    -0.79000
C695        C  0.50643048  0.87926697  0.34879553     0.81700
N696        N  0.50607331  0.91075568  0.36583597    -0.79000
C697        C  0.47558661  0.92608676  0.37556027     0.81800
N698        N  0.44523685  0.91000211  0.36653596    -0.80700
C699        C  0.44285941  0.69188906  0.16378728     0.79300
N700        N  0.47402667  0.69484559  0.17897406    -0.79000
C701        C  0.50296168  0.68477454  0.16241393     0.81700
N702        N  0.50023708  0.67066745  0.13023517    -0.79000
C703        C  0.46904099  0.66687982  0.11475247     0.81800
N704        N  0.44015974  0.67843526  0.13114910    -0.80700
C705        C  0.79412506  0.50924347  0.36665639     0.79300
N706        N  0.82534091  0.50855807  0.38342149    -0.79000
C707        C  0.84154123  0.53895011  0.39144118     0.81700
N708        N  0.82717947  0.56930500  0.38151800    -0.79000
C709        C  0.79696613  0.57047677  0.36380556     0.81800
N710        N  0.78059173  0.54016755  0.35618903    -0.80700
C711        C  0.61681693  0.60324922  0.16273419     0.79300
N712        N  0.62841113  0.57267968  0.17590907    -0.79000
C713        C  0.62265195  0.54232055  0.15903658     0.81700
N714        N  0.60546725  0.54257919  0.12814288    -0.79000
C715        C  0.59388399  0.57283092  0.11388450     0.81800
N716        N  0.60020416  0.60350066  0.13104595    -0.80700
C717        C  0.48867454  0.69953066  0.82974713     0.79300
N718        N  0.45877038  0.70678734  0.81279736    -0.79000
C719        C  0.42810708  0.69511649  0.82564370     0.81700
N720        N  0.42730771  0.67663141  0.85612469    -0.79000
C721        C  0.45736360  0.66929083  0.87292458     0.81800
N722        N  0.48748168  0.68110770  0.85972222    -0.80700
C723        C  0.46115492  0.89867093  0.65586203     0.79300
N724        N  0.46223991  0.92717312  0.63507335    -0.79000
C725        C  0.49228518  0.93985366  0.62206698     0.81700
N726        N  0.52245209  0.92291101  0.62980263    -0.79000
C727        C  0.52170348  0.89297426  0.64956517     0.81800
N728        N  0.49105486  0.88155203  0.66281122    -0.80700
C729        C  0.81184300  0.57956112  0.63784562     0.79300
N730        N  0.84363412  0.58114101  0.62319995    -0.79000
C731        C  0.86101281  0.55166414  0.61573610     0.81700
N732        N  0.84714227  0.52030545  0.62394627    -0.79000
C733        C  0.81509953  0.51877177  0.63820732     0.81800
N734        N  0.79783405  0.54832094  0.64518602    -0.80700
C735        C  0.62348692  0.58448952  0.82355630     0.79300
N736        N  0.60485249  0.58628919  0.85402217    -0.79000
C737        C  0.59373016  0.55666277  0.87078098     0.81700
N738        N  0.60203565  0.52497963  0.85656035    -0.79000
C739        C  0.62075063  0.52227715  0.82621525     0.81800
N740        N  0.63132713  0.55240513  0.81016007    -0.80700
C741        C  0.32954231  0.50327744  0.83351308     0.79300
N742        N  0.31642529  0.53311218  0.82020354    -0.79000
C743        C  0.32007436  0.56362487  0.83721581     0.81700
N744        N  0.33671800  0.56443214  0.86830428    -0.79000
C745        C  0.34985721  0.53505727  0.88276957     0.81800
N746        N  0.34585106  0.50399765  0.86547030    -0.80700
C747        C  0.14412825  0.60149697  0.63296832     0.79300
N748        N  0.15766280  0.57148924  0.64522182    -0.79000
C749        C  0.14206560  0.54073708  0.63865482     0.81700
N750        N  0.11229197  0.54005165  0.61993200    -0.79000
C751        C  0.09796607  0.57004151  0.60794888     0.81800
N752        N  0.11357177  0.60103440  0.61515398    -0.80700
N753        N  0.01547007  0.47877162  0.48148273    -0.07000
N754        N  0.04155790  0.46095178  0.46760451    -0.59200
N755        N  0.93774182  0.47745223  0.52591578    -0.06700
N756        N  0.91101274  0.46284551  0.54225414    -0.61300
N757        N  0.93406058  0.47476931  0.49197521    -0.06300
N758        N  0.90506639  0.45813659  0.48452049    -0.59100
N759        N  0.01959948  0.48147409  0.51537896    -0.06000
N760        N  0.04846015  0.46539001  0.52516489    -0.61600
C761        C  0.06222116  0.45257900  0.49512612     0.95100
C762        C  0.89085953  0.45065792  0.51597538     0.94900
N763        N  0.93778614  0.57412298  0.57348884    -0.07200
N764        N  0.90896715  0.58414330  0.58865319    -0.59700
N765        N  0.01997313  0.54643976  0.56671032    -0.05400
N766        N  0.04913594  0.53744828  0.58198576    -0.61000
N767        N  0.01733053  0.58066601  0.56487614    -0.07300
N768        N  0.04506889  0.59544724  0.57896243    -0.60000
N769        N  0.94124422  0.54006133  0.57595939    -0.05000
N770        N  0.91480371  0.52633582  0.59276002    -0.61100
Mn771      Mn  0.98008982  0.51065601  0.54701819     1.18400
C772        C  0.89516461  0.55410876  0.60053788     0.97200
C773        C  0.06461347  0.56805870  0.58942656     0.97900
N774        N  0.92356381  0.52855764  0.43126249    -0.07300
N775        N  0.89549248  0.51350304  0.41818679    -0.63600
N776        N  0.00063926  0.56936312  0.42131745    -0.06100
N777        N  0.02855728  0.58270170  0.40657482    -0.64300
N778        N  0.00340134  0.53520819  0.42376139    -0.06800
N779        N  0.03313271  0.52482238  0.41080947    -0.63900
N780        N  0.92101115  0.56273074  0.42912805    -0.05700
N781        N  0.89142567  0.57147561  0.41465867    -0.64500
Mn782      Mn  0.96899268  0.50335555  0.45602441     1.10700
C783        C  0.87573843  0.54074275  0.40804165     0.98400
C784        C  0.04839362  0.55459966  0.40026550     0.98500
N785        N  0.00531874  0.63579259  0.50462734    -0.06800
N786        N  0.03288119  0.65469130  0.51223040    -0.62200
N787        N  0.92048175  0.62800739  0.48036780    -0.06100
N788        N  0.89225698  0.64492694  0.47000679    -0.58900
N789        N  0.92422454  0.63074293  0.51437530    -0.07400
N790        N  0.89842506  0.64951260  0.52762872    -0.61700
N791        N  0.00173185  0.63315694  0.47068171    -0.06400
N792        N  0.02706629  0.65008202  0.45443432    -0.58900
Mn793      Mn  0.97119459  0.60627557  0.54042725     1.20200
Mn794      Mn  0.96056316  0.59892738  0.44915386     1.10100
Cl795      Cl  0.97015663  0.55489331  0.49819068    -0.86900
C796        C  0.04624868  0.66359768  0.48079235     0.95400
C797        C  0.87836551  0.65836562  0.49970165     0.95200
N798        N  0.49887506  0.48823193  0.04258162    -0.07000
N799        N  0.51396537  0.47362087  0.07002300    -0.59200
N800        N  0.45849474  0.47970059  0.96545355    -0.06700
N801        N  0.44510805  0.46327652  0.93844152    -0.61300
N802        N  0.49230117  0.48286898  0.96199999    -0.06300
N803        N  0.50245857  0.46853673  0.93255727    -0.59100
N804        N  0.46491327  0.48616477  0.04536678    -0.06000
N805        N  0.45636850  0.47018081  0.07445690    -0.61600
C806        C  0.48696604  0.46252303  0.08960919     0.95100
C807        C  0.47276892  0.45649495  0.91831709     0.94900
N808        N  0.39268073  0.56238184  0.96039970    -0.07200
N809        N  0.37560110  0.57000581  0.93149033    -0.59700
N810        N  0.39908694  0.53671599  0.04647870    -0.05400
N811        N  0.38290735  0.52600364  0.07521522    -0.61000
N812        N  0.39572536  0.57059647  0.04294928    -0.07300
N813        N  0.37752924  0.58352741  0.06937212    -0.60000
N814        N  0.39560405  0.52846326  0.96371367    -0.05000
N815        N  0.38078301  0.51235106  0.93689064    -0.61100
Mn816      Mn  0.42887256  0.50671121  0.00581333     1.18400
C817        C  0.36813350  0.53863362  0.91698510     0.97200
C818        C  0.36945691  0.55546754  0.08956392     0.97900
N819        N  0.54784724  0.54291701  0.95191514    -0.07300
N820        N  0.56521946  0.53021240  0.92485481    -0.63600
N821        N  0.54863612  0.58335444  0.03283940    -0.06100
N822        N  0.56335346  0.59821644  0.06048451    -0.64300
N823        N  0.55180838  0.54933512  0.03462411    -0.06800
N824        N  0.56868046  0.54041081  0.06326968    -0.63900
N825        N  0.54531595  0.57697855  0.94929320    -0.05700
N826        N  0.56108911  0.58792984  0.92029524    -0.64500
Mn827      Mn  0.52369446  0.51488668  0.99763743     1.10700
C828        C  0.57357089  0.55843457  0.90499670     0.98400
C829        C  0.57599186  0.57100644  0.07926636     0.98500
N830        N  0.45021217  0.63012503  0.03322744    -0.06800
N831        N  0.43875198  0.64317395  0.06284685    -0.62200
N832        N  0.48000772  0.62727654  0.95099400    -0.06100
N833        N  0.48913541  0.64353633  0.92220604    -0.58900
N834        N  0.44602188  0.62438515  0.95269431    -0.07400
N835        N  0.43150352  0.63874600  0.92487500    -0.61700
N836        N  0.48422788  0.63270245  0.03142970    -0.06400
N837        N  0.49636413  0.64747958  0.05993011    -0.58900
Mn838      Mn  0.42019383  0.59786334  0.99708791     1.20200
Mn839      Mn  0.51536764  0.60634453  0.99089930     1.10100
Cl840      Cl  0.47208536  0.55650929  0.99785574    -0.86900
C841        C  0.46778665  0.65393656  0.07906183     0.95400
C842        C  0.45883397  0.65048189  0.90617708     0.95200
N843        N  0.49305715  0.10224407  0.56921974    -0.07000
N844        N  0.50306734  0.13201635  0.58381484    -0.59200
N845        N  0.46788677  0.01639389  0.57611756    -0.06700
N846        N  0.45955939  0.98790418  0.59354991    -0.61300
N847        N  0.50167340  0.01933668  0.57360601    -0.06300
N848        N  0.51700845  0.99254238  0.58934081    -0.59100
N849        N  0.45932544  0.09864217  0.57189832    -0.06000
N850        N  0.44581780  0.12598341  0.58819009    -0.61600
C851        C  0.47335854  0.14681985  0.59570616     0.95100
C852        C  0.49026005  0.97310240  0.60181584     0.94900
N853        N  0.40523896  0.00455884  0.48802888    -0.07200
N854        N  0.38884054  0.97575213  0.47918266    -0.59700
N855        N  0.40101075  0.08728836  0.51673400    -0.05400
N856        N  0.38822804  0.11723375  0.52727915    -0.61000
N857        N  0.39865148  0.08457155  0.48256675    -0.07300
N858        N  0.38438794  0.11269307  0.46928051    -0.60000
N859        N  0.40741346  0.00703485  0.52225001    -0.05000
N860        N  0.39250199  0.97975088  0.53723804    -0.61100
Mn861      Mn  0.43296599  0.05222170  0.54776453     1.18400
C862        C  0.38115348  0.96048467  0.50998698     0.97200
C863        C  0.37810520  0.13260477  0.49738964     0.97900
N864        N  0.55153730  0.02221634  0.51017269    -0.07300
N865        N  0.56656484  0.99448087  0.52352660    -0.63600
N866        N  0.54230700  0.10022206  0.47040506    -0.06100
N867        N  0.55559725  0.12869528  0.45585540    -0.64300
N868        N  0.54431824  0.10235639  0.50468457    -0.06800
N869        N  0.55880165  0.13204297  0.51393041    -0.63900
N870        N  0.54889653  0.01927104  0.47600228    -0.05700
N871        N  0.56201373  0.98936246  0.46564716    -0.64500
Mn872      Mn  0.52383486  0.06188508  0.54022429     1.10700
C873        C  0.57299090  0.97442069  0.49553049     0.98400
C874        C  0.56577392  0.14826881  0.48344555     0.98500
N875        N  0.44755905  0.08728104  0.41927402    -0.06800
N876        N  0.43146262  0.11434498  0.40495965    -0.62200
N877        N  0.48999277  0.00797652  0.42012830    -0.06100
N878        N  0.50286550  0.98083733  0.40285737    -0.58900
N879        N  0.45625123  0.00460731  0.42317858    -0.07400
N880        N  0.44563260  0.97538604  0.40795582    -0.61700
N881        N  0.48126707  0.09092801  0.41648378    -0.06400
N882        N  0.48869959  0.12042044  0.40015165    -0.58900
Mn883      Mn  0.42588667  0.04478997  0.45250451     1.20200
Mn884      Mn  0.51674174  0.05466418  0.44460039     1.10100
Cl885      Cl  0.47495291  0.05328921  0.49625451    -0.86900
C886        C  0.45747039  0.13485605  0.39285799     0.95400
C887        C  0.47488037  0.96049397  0.39518068     0.95200
O888        O  0.14529188  0.38091520  0.28539172    -0.89100
C889        C  0.19777995  0.19485698  0.29139851     1.10900
O890        O  0.19049552  0.33338530  0.24311030    -1.36900
O891        O  0.23472535  0.27225221  0.34626166    -0.90600
O892        O  0.17839123  0.41127871  0.24859400    -0.91300
O893        O  0.26290719  0.38119398  0.25477112    -0.80100
O894        O  0.18343392  0.32332874  0.31633400    -1.02200
C895        C  0.30703041  0.28812031  0.28407245     1.21000
O896        O  0.24920083  0.30965711  0.21204438    -1.37100
Mn897      Mn  0.19932177  0.28346024  0.21845151     1.82100
O898        O  0.29291009  0.31750161  0.28943529    -0.79200
O899        O  0.26176119  0.22941489  0.31846332    -0.88600
C900        C  0.24309552  0.22270773  0.19379056     1.12100
C901        C  0.25798215  0.24890646  0.34468355     1.06800
O902        O  0.17541918  0.29506373  0.16874988    -0.80100
O903        O  0.22296778  0.27633749  0.26902803    -1.33800
O904        O  0.19747276  0.34526604  0.16947348    -0.99300
C905        C  0.32698257  0.34722116  0.19272124     1.05500
Mn906      Mn  0.25726798  0.23420822  0.26539473     1.48600
O907        O  0.30117027  0.35737771  0.17477070    -0.88500
Mn908      Mn  0.18586266  0.37583391  0.20846225     1.49600
O909        O  0.11138856  0.32975482  0.24046440    -0.92400
C910        C  0.20116134  0.34538088  0.33054812     1.18700
C911        C  0.10834627  0.34944295  0.21394625     1.10800
Mn912      Mn  0.24260607  0.32922489  0.26499661     1.81000
O913        O  0.26246911  0.23687722  0.21435260    -0.97500
Mn914      Mn  0.14938446  0.32868562  0.27922069     1.49300
C915        C  0.15883234  0.40893512  0.27503555     1.07300
Mn916      Mn  0.29295657  0.27777558  0.20927349     1.49900
C917        C  0.27627146  0.28754395  0.13078025     1.10200
O918        O  0.23630043  0.38270699  0.20666873    -1.03300
O919        O  0.21796283  0.19743644  0.26551822    -0.93000
C920        C  0.25615820  0.39730418  0.22665455     1.21500
O921        O  0.29394568  0.27027262  0.26084096    -1.03700
O922        O  0.19154272  0.21953629  0.31218959    -0.91100
O923        O  0.29439559  0.27749163  0.15607933    -0.90700
O924        O  0.13269905  0.36875725  0.20264503    -0.90800
Mn925      Mn  0.19167219  0.27305420  0.31309091     1.47900
O926        O  0.21278170  0.23500066  0.19233366    -0.79200
C927        C  0.17956025  0.32417548  0.15384239     1.14500
O928        O  0.23014304  0.35125155  0.31619867    -0.78000
O929        O  0.15135061  0.25621076  0.23111199    -0.77600
Mn930      Mn  0.24781257  0.34764862  0.17201006     1.51100
O931        O  0.32651457  0.31951992  0.21061001    -0.89900
O932        O  0.15272839  0.27831472  0.28141695    -0.97500
O933        O  0.25393409  0.31133912  0.13264448    -0.92500
C934        C  0.13940384  0.25740179  0.26189154     1.12300
C935        C  0.62119425  0.63778267  0.78289314    -0.27200
C936        C  0.63920069  0.61703209  0.80740264    -0.15300
C937        C  0.67315807  0.62726528  0.81607870     0.35300
C938        C  0.68771959  0.65808309  0.80206802    -0.26700
C939        C  0.66964103  0.67967754  0.77845533    -0.15900
C940        C  0.63612566  0.66864732  0.76829674     0.36400
N941        N  0.61681532  0.68895333  0.74381322    -0.90200
H942        H  0.59527995  0.63021403  0.77522636     0.17500
H943        H  0.71362500  0.66532828  0.81014052     0.17500
N944        N  0.69310001  0.60640554  0.83957681    -0.89200
H945        H  0.59337334  0.69584405  0.75538061     0.34900
H946        H  0.61113323  0.67313141  0.72241954     0.40000
H947        H  0.71566804  0.59884224  0.82667989     0.39600
H948        H  0.70024529  0.62194479  0.86074742     0.34500
C949        C  0.77511996  0.60698664  0.68270904    -0.27200
C950        C  0.79666885  0.61067946  0.65335491    -0.15300
C951        C  0.80762940  0.64386998  0.64288460     0.35300
C952        C  0.79977616  0.67233507  0.66353523    -0.26700
C953        C  0.78133094  0.66834038  0.69486641    -0.15900
C954        C  0.76745092  0.63556929  0.70367555     0.36400
N955        N  0.74706495  0.63075151  0.73451304    -0.90200
H956        H  0.76606207  0.58154797  0.69094975     0.17500
H957        H  0.80987866  0.69742308  0.65567168     0.17500
N958        N  0.82775849  0.64864735  0.61191787    -0.89200
H959        H  0.75939498  0.61245690  0.75041149     0.34900
H960        H  0.72305811  0.62052000  0.72716143     0.40000
H961        H  0.81407742  0.66514487  0.59536767     0.39600
H962        H  0.85099504  0.66090625  0.61868551     0.34500
C963        C  0.59583196  0.87129412  0.71034739    -0.27200
C964        C  0.60991825  0.84050942  0.69613508    -0.15300
C965        C  0.59517226  0.82775357  0.66476584     0.35300
C966        C  0.56727958  0.84568386  0.64890679    -0.26700
C967        C  0.55394623  0.87662382  0.66327632    -0.15900
C968        C  0.56838292  0.88925528  0.69441920     0.36400
N969        N  0.55424643  0.91988447  0.71045326    -0.90200
H970        H  0.60631298  0.88171167  0.73434684     0.17500
H971        H  0.55577078  0.83523316  0.62538277     0.17500
N972        N  0.60797770  0.79699866  0.64830047    -0.89200
H973        H  0.56708567  0.92547681  0.73378020     0.34900
H974        H  0.55892050  0.94088210  0.69371081     0.40000
H975        H  0.63416147  0.80074820  0.64260418     0.39600
H976        H  0.60561858  0.77625283  0.66581957     0.34500
C977        C  0.52250966  0.74510677  0.79819004    -0.27200
C978        C  0.52199371  0.71469302  0.81855637    -0.15300
C979        C  0.55344623  0.70087970  0.83093398     0.35300
C980        C  0.58417540  0.71881602  0.82515093    -0.26700
C981        C  0.58479093  0.75022783  0.80651250    -0.15900
C982        C  0.55365927  0.76291760  0.79159539     0.36400
N983        N  0.55341122  0.79403598  0.77064475    -0.90200
H984        H  0.49847119  0.75565737  0.78829097     0.17500
H985        H  0.60774701  0.70791573  0.83580538     0.17500
N986        N  0.55445143  0.66865577  0.84979949    -0.89200
H987        H  0.56668068  0.78853662  0.74756925     0.34900
H988        H  0.52818941  0.80046989  0.76325066     0.40000
H989        H  0.56539387  0.67337289  0.87428144     0.39600
H990        H  0.57057413  0.65151335  0.83641593     0.34500
C991        C  0.79212434  0.75762798  0.62141785    -0.27200
C992        C  0.75753856  0.75052751  0.63152411    -0.15300
C993        C  0.73776062  0.72922387  0.60869071     0.35300
C994        C  0.75243231  0.71671252  0.57707724    -0.26700
C995        C  0.78716879  0.72367170  0.56766587    -0.15900
C996        C  0.80687581  0.74441831  0.59045657     0.36400
N997        N  0.84192073  0.75297621  0.58186140    -0.90200
H998        H  0.80846989  0.77334188  0.63803914     0.17500
H999        H  0.73664006  0.70088561  0.55994181     0.17500
N1000       N  0.70295561  0.71945883  0.61689807    -0.89200
H1001       H  0.85775610  0.74422871  0.60214395     0.34900
H1002       H  0.84405928  0.78009418  0.58058822     0.40000
H1003       H  0.68823320  0.74200400  0.61983808     0.39600
H1004       H  0.70312349  0.70600194  0.64060687     0.34500
C1005       C  0.64750473  0.89366013  0.62160931    -0.27200
C1006       C  0.67273776  0.86746664  0.61900312    -0.15300
C1007       C  0.67501036  0.84761622  0.58830245     0.35300
C1008       C  0.65258441  0.85522105  0.56067536    -0.26700
C1009       C  0.62843320  0.88256561  0.56296021    -0.15900
C1010       C  0.62567097  0.90146466  0.59411213     0.36400
N1011       N  0.60159133  0.92945713  0.59787537    -0.90200
H1012       H  0.64476130  0.90907652  0.64506223     0.17500
H1013       H  0.65510419  0.84050452  0.53678154     0.17500
N1014       N  0.70026340  0.82045747  0.58487699    -0.89200
H1015       H  0.61566233  0.95232319  0.60225047     0.34900
H1016       H  0.58695678  0.92469144  0.62018152     0.40000
H1017       H  0.69346134  0.80071216  0.60233712     0.39600
H1018       H  0.69927204  0.80940366  0.56001728     0.34500
C1019       C  0.90456200  0.70491140  0.83419450    -0.27200
C1020       C  0.92905301  0.73149469  0.83936200    -0.15300
C1021       C  0.92329495  0.76451112  0.82374022     0.35300
C1022       C  0.89286886  0.77027407  0.80470734    -0.26700
C1023       C  0.86848980  0.74354911  0.80009876    -0.15900
C1024       C  0.87508519  0.71031258  0.81415365     0.36400
N1025       N  0.85261013  0.68143057  0.80688184    -0.90200
H1026       H  0.90875655  0.67902883  0.84462114     0.17500
H1027       H  0.88815751  0.79583445  0.79370842     0.17500
N1028       N  0.94729517  0.79278668  0.82706425    -0.89200
H1029       H  0.84368286  0.67123434  0.83046649     0.34900
H1030       H  0.86706301  0.66214638  0.79445089     0.40000
H1031       H  0.95215673  0.79703544  0.85352135     0.39600
H1032       H  0.97031690  0.78620050  0.81450474     0.34500
C1033       C  0.86856877  0.88610861  0.66517242    -0.27200
C1034       C  0.89230569  0.90610754  0.68350586    -0.15300
C1035       C  0.88807576  0.90962274  0.72024362     0.35300
C1036       C  0.86077301  0.89179570  0.73751015    -0.26700
C1037       C  0.83835960  0.86946998  0.71915054    -0.15900
C1038       C  0.84273098  0.86719597  0.68217657     0.36400
N1039       N  0.82179530  0.84461014  0.66117604    -0.90200
H1040       H  0.87183629  0.88256130  0.63732146     0.17500
H1041       H  0.85778271  0.89465757  0.76542369     0.17500
N1042       N  0.91068005  0.93121644  0.74068635    -0.89200
H1043       H  0.83813158  0.82692442  0.64873094     0.34900
H1044       H  0.80966658  0.85956749  0.64195188     0.40000
H1045       H  0.92473853  0.91495668  0.75730967     0.39600
H1046       H  0.92845460  0.94444078  0.72498333     0.34500
C1047       C  0.64322261  0.95810359  0.83718723    -0.27200
C1048       C  0.66399801  0.98659270  0.84583077    -0.15300
C1049       C  0.70054697  0.98240482  0.84331758     0.35300
C1050       C  0.71503276  0.95025386  0.83160206    -0.26700
C1051       C  0.69384348  0.92219495  0.82136357    -0.15900
C1052       C  0.65728920  0.92687153  0.82450011     0.36400
N1053       N  0.63360640  0.90027502  0.81358013    -0.90200
H1054       H  0.61533536  0.96059735  0.83844027     0.17500
H1055       H  0.74279834  0.94773985  0.82901607     0.17500
N1056       N  0.72291260  0.01085249  0.85255018    -0.89200
H1057       H  0.61804578  0.91046985  0.79375058     0.34900
H1058       H  0.61761500  0.89399716  0.83465727     0.40000
H1059       H  0.74881878  0.00389624  0.84926791     0.39600
H1060       H  0.71947636  0.01569561  0.87912805     0.34500
C1061       C  0.79773499  0.98143182  0.64951401    -0.27200
C1062       C  0.82206693  0.99562682  0.67242499    -0.15300
C1063       C  0.82181946  0.98638548  0.70799563     0.35300
C1064       C  0.79770514  0.96159580  0.71975599    -0.26700
C1065       C  0.77370678  0.94727373  0.69644758    -0.15900
C1066       C  0.77319184  0.95773182  0.66130285     0.36400
N1067       N  0.74818304  0.94319405  0.63756772    -0.90200
H1068       H  0.79694885  0.98994097  0.62256031     0.17500
H1069       H  0.79847025  0.95247518  0.74649400     0.17500
N1070       N  0.84603801  0.00212263  0.73168151    -0.89200
H1071       H  0.75148460  0.95336877  0.61248920     0.34900
H1072       H  0.72366165  0.95092232  0.64595457     0.40000
H1073       H  0.84255792  0.99225630  0.75685773     0.39600
H1074       H  0.87086531  0.99486441  0.72381265     0.34500
C1075       C  0.80255244  0.77330065  0.93614198    -0.27200
C1076       C  0.81147560  0.73763595  0.93817046    -0.15300
C1077       C  0.80817175  0.71769457  0.90737008     0.35300
C1078       C  0.79527655  0.73289443  0.87646893    -0.26700
C1079       C  0.78580838  0.76827575  0.87447312    -0.15900
C1080       C  0.79014540  0.78866539  0.90475163     0.36400
N1081       N  0.78058613  0.82461410  0.90427358    -0.90200
H1082       H  0.80487654  0.78941236  0.95916619     0.17500
H1083       H  0.79179328  0.71633300  0.85394347     0.17500
N1084       N  0.81660689  0.68142462  0.90749395    -0.89200
H1085       H  0.76149883  0.82838354  0.92317056     0.34900
H1086       H  0.80227091  0.83930497  0.91137978     0.40000
H1087       H  0.79489654  0.66734786  0.89929919     0.39600
H1088       H  0.83652735  0.67744528  0.88960253     0.34500
C1089       C  0.62721624  0.85959152  0.93993995    -0.27200
C1090       C  0.64276989  0.89241717  0.94296414    -0.15300
C1091       C  0.67352772  0.90008296  0.92529698     0.35300
C1092       C  0.68678948  0.87561679  0.90202552    -0.26700
C1093       C  0.67004222  0.84348063  0.89774842    -0.15900
C1094       C  0.64101183  0.83483340  0.91767218     0.36400
N1095       N  0.62468580  0.80149284  0.91392944    -0.90200
H1096       H  0.60459060  0.85303714  0.95534809     0.17500
H1097       H  0.70897375  0.88228675  0.88606811     0.17500
N1098       N  0.69079033  0.93265471  0.93067235    -0.89200
H1099       H  0.59911374  0.80544877  0.90604379     0.34900
H1100       H  0.62428099  0.78945426  0.93839519     0.40000
H1101       H  0.69257760  0.94536156  0.90666205     0.39600
H1102       H  0.71589628  0.92745343  0.93931457     0.34500
C1103       C  0.75831558  0.63832097  0.30278057    -0.27200
C1104       C  0.78079606  0.66645056  0.30919587    -0.15300
C1105       C  0.80474048  0.66401702  0.33693059     0.35300
C1106       C  0.80677632  0.63348295  0.35625984    -0.26700
C1107       C  0.78652926  0.60419218  0.34808906    -0.15900
C1108       C  0.76072066  0.60722663  0.32208820     0.36400
N1109       N  0.73758180  0.57880193  0.31479562    -0.90200
H1110       H  0.73896452  0.64042677  0.28245377     0.17500
H1111       H  0.82594921  0.63242272  0.37684173     0.17500
N1112       N  0.82805074  0.69195821  0.34514011    -0.89200
H1113       H  0.72217454  0.57507268  0.33688782     0.34900
H1114       H  0.72074723  0.58519530  0.29443839     0.40000
H1115       H  0.85337294  0.68281051  0.34269701     0.39600
H1116       H  0.82417714  0.69909146  0.37112225     0.34500
C1117       C  0.63574486  0.67470405  0.22967227    -0.27200
C1118       C  0.66777845  0.68722192  0.21738816    -0.15300
C1119       C  0.68101002  0.67270442  0.18595307     0.35300
C1120       C  0.66191659  0.64797337  0.16723210    -0.26700
C1121       C  0.63026193  0.63547261  0.17936150    -0.15900
C1122       C  0.61740755  0.64837413  0.21132204     0.36400
N1123       N  0.58598654  0.63448752  0.22538599    -1.02600
H1124       H  0.62486605  0.68535022  0.25335784     0.17500
H1125       H  0.67299249  0.63697613  0.14375770     0.17500
N1126       N  0.71447291  0.68240192  0.17296508    -0.89200
H1127       H  0.56869662  0.65504532  0.22876344     0.34900
H1128       H  0.59148292  0.62414961  0.24999243     0.40000
H1129       H  0.71146164  0.69251524  0.14782231     0.39600
H1130       H  0.72965582  0.65999023  0.17133083     0.34500
C1131       C  0.59094517  0.72522849  0.15983039    -0.27200
C1132       C  0.59022860  0.74566649  0.19016957    -0.15300
C1133       C  0.56238991  0.74222142  0.21359302     0.35300
C1134       C  0.53594625  0.71884049  0.20582880    -0.26700
C1135       C  0.53588447  0.69971650  0.17444302    -0.15900
C1136       C  0.56446579  0.70226636  0.15188555     0.36400
N1137       N  0.56633576  0.68297835  0.12001107    -0.90200
H1138       H  0.61210156  0.72726997  0.14140343     0.17500
H1139       H  0.51433609  0.71717825  0.22372819     0.17500
N1140       N  0.55989540  0.76207708  0.24506637    -0.89200
H1141       H  0.56725772  0.70072832  0.09932941     0.34900
H1142       H  0.58955099  0.66917695  0.11994434     0.40000
H1143       H  0.55872825  0.78851820  0.23867713     0.39600
H1144       H  0.58185785  0.75740491  0.26023624     0.34500
C1145       C  0.55188852  0.83083700  0.34563207    -0.27200
C1146       C  0.53996251  0.86405808  0.33524127    -0.15300
C1147       C  0.55977554  0.88234967  0.31045855     0.35300
C1148       C  0.59025304  0.86771761  0.29653713    -0.26700
C1149       C  0.60291459  0.83472367  0.30697328    -0.15900
C1150       C  0.58310635  0.81637000  0.33232528     0.36400
N1151       N  0.59409481  0.78330970  0.34542678    -0.90200
H1152       H  0.53712365  0.81619409  0.36468060     0.17500
H1153       H  0.60434460  0.88289295  0.27738211     0.17500
N1154       N  0.54865546  0.91591210  0.29873473    -0.89200
H1155       H  0.61857128  0.78638996  0.35663418     0.34900
H1156       H  0.59601516  0.76603601  0.32451962     0.40000
H1157       H  0.56842622  0.93378707  0.30397196     0.39600
H1158       H  0.54524082  0.91481595  0.27172346     0.34500
C1159       C  0.63262083  0.87889416  0.37912115    -0.27200
C1160       C  0.66185917  0.85753950  0.38370566    -0.15300
C1161       C  0.66497906  0.83775053  0.41445315     0.35300
C1162       C  0.64217216  0.84443806  0.44201604    -0.26700
C1163       C  0.61650976  0.87028007  0.43896183    -0.15900
C1164       C  0.60969355  0.88506682  0.40619930     0.36400
N1165       N  0.58102743  0.90828312  0.40123864    -0.90200
H1166       H  0.62836293  0.89258892  0.35483261     0.17500
H1167       H  0.64640184  0.83145010  0.46672306     0.17500
N1168       N  0.69193305  0.81234843  0.41826008    -0.89200
H1169       H  0.57997077  0.91741351  0.37558285     0.34900
H1170       H  0.55850130  0.89388960  0.40573801     0.40000
H1171       H  0.69107092  0.80092059  0.44300139     0.39600
H1172       H  0.68687136  0.79240337  0.40044099     0.34500
C1173       C  0.76283965  0.70279827  0.41732322    -0.27200
C1174       C  0.78369865  0.72414525  0.43857875    -0.15300
C1175       C  0.78762336  0.75942330  0.42878704     0.35300
C1176       C  0.77241219  0.77199782  0.39791242    -0.26700
C1177       C  0.75212011  0.75075860  0.37582717    -0.15900
C1178       C  0.74674149  0.71550991  0.38648805     0.36400
N1179       N  0.72659351  0.69123539  0.36647422    -0.90200
H1180       H  0.75906733  0.67579926  0.42465142     0.17500
H1181       H  0.77690996  0.79898935  0.39089668     0.17500
N1182       N  0.80762298  0.78310973  0.44946016    -0.89200
H1183       H  0.71719333  0.70212241  0.34352592     0.34900
H1184       H  0.70513442  0.68412633  0.38147037     0.40000
H1185       H  0.79655752  0.78450923  0.47426097     0.39600
H1186       H  0.83265359  0.77319576  0.45192356     0.34500
C1187       C  0.61768064  0.86805986  0.07284177    -0.27200
C1188       C  0.63875825  0.89572587  0.06210896    -0.15300
C1189       C  0.67323056  0.89791864  0.07365029     0.35300
C1190       C  0.68579357  0.87305475  0.09712267    -0.26700
C1191       C  0.66442922  0.84568032  0.10807739    -0.15900
C1192       C  0.63040423  0.84266886  0.09540652     0.36400
N1193       N  0.60869287  0.81428871  0.10663793    -0.90200
H1194       H  0.59175678  0.86541242  0.06235702     0.17500
H1195       H  0.71154700  0.87597260  0.10794744     0.17500
N1196       N  0.69526834  0.92546619  0.06163242    -0.89200
H1197       H  0.61986801  0.79121282  0.09771918     0.34900
H1198       H  0.58425119  0.81591894  0.09508999     0.40000
H1199       H  0.70398027  0.93933518  0.08337137     0.39600
H1200       H  0.71674902  0.91426709  0.04955990     0.34500
C1201       C  0.80152998  0.77321534  0.06973222    -0.27200
C1202       C  0.80935360  0.73714717  0.06853457    -0.15300
C1203       C  0.80400813  0.71771032  0.09948272     0.35300
C1204       C  0.79206499  0.73440968  0.13008998    -0.26700
C1205       C  0.78473508  0.77043967  0.13156114    -0.15900
C1206       C  0.78934711  0.78990527  0.10060012     0.36400
N1207       N  0.78017154  0.82609120  0.10000258    -0.90200
H1208       H  0.80477121  0.78862284  0.04628864     0.17500
H1209       H  0.78767005  0.71867127  0.15310864     0.17500
N1210       N  0.80944675  0.68070695  0.09965776    -0.89200
H1211       H  0.78375348  0.83648128  0.07505323     0.34900
H1212       H  0.79730097  0.83926264  0.11646551     0.40000
H1213       H  0.80488595  0.67030131  0.12444483     0.39600
H1214       H  0.79098475  0.66958551  0.08310524     0.34500
C1215       C  0.65233564  0.91367722  0.17916516    -0.27200
C1216       C  0.68860845  0.91634667  0.18362520    -0.15300
C1217       C  0.70482994  0.94772742  0.17425484     0.35300
C1218       C  0.68457529  0.97549758  0.16116207    -0.26700
C1219       C  0.64821621  0.97241979  0.15739989    -0.15900
C1220       C  0.63232794  0.94087956  0.16620956     0.36400
N1221       N  0.59543551  0.93721975  0.16510897    -0.90200
H1222       H  0.63837515  0.89111552  0.18844413     0.17500
H1223       H  0.69709657  0.00013223  0.15546173     0.17500
N1224       N  0.74101161  0.95252094  0.18050859    -0.89200
H1225       H  0.58947838  0.91599252  0.14915821     0.34900
H1226       H  0.58670943  0.93153839  0.19030165     0.40000
H1227       H  0.75266947  0.95933629  0.15688071     0.39600
H1228       H  0.74400004  0.97344469  0.19766274     0.34500
C1229       C  0.80486472  0.95050262  0.29923827    -0.27200
C1230       C  0.76912338  0.94923255  0.30494570    -0.15300
C1231       C  0.75167288  0.97844124  0.31778335     0.35300
C1232       C  0.77052844  0.00846429  0.32566667    -0.26700
C1233       C  0.80654861  0.00918631  0.32140611    -0.15900
C1234       C  0.82397936  0.98029789  0.30764677     0.36400
N1235       N  0.86067661  0.98158754  0.30174628    -0.90200
H1236       H  0.81785761  0.92803382  0.28879190     0.17500
H1237       H  0.75721230  0.03086839  0.33626374     0.17500
N1238       N  0.71521525  0.97705070  0.32433467    -0.89200
H1239       H  0.86908956  0.95859110  0.29000871     0.34900
H1240       H  0.87284180  0.98277654  0.32604868     0.40000
H1241       H  0.70345973  0.99693270  0.30999544     0.39600
H1242       H  0.71117772  0.98206955  0.35079700     0.34500
C1243       C  0.85181866  0.86617464  0.31969306    -0.27200
C1244       C  0.84521966  0.86520638  0.28345679    -0.15300
C1245       C  0.87157082  0.87848533  0.26127593     0.35300
C1246       C  0.90360142  0.89008927  0.27530619    -0.26700
C1247       C  0.91003777  0.89045583  0.31153374    -0.15900
C1248       C  0.88324646  0.87868035  0.33369664     0.36400
N1249       N  0.88814606  0.87811698  0.37070565    -0.90200
H1250       H  0.83233039  0.85683722  0.33775163     0.17500
H1251       H  0.92347267  0.89938661  0.25767365     0.17500
N1252       N  0.86687125  0.88014859  0.22441177    -0.89200
H1253       H  0.88500690  0.85247467  0.37937266     0.34900
H1254       H  0.86874131  0.89322005  0.38204884     0.40000
H1255       H  0.84540128  0.89593840  0.21926091     0.39600
H1256       H  0.86147531  0.85520073  0.21585199     0.34500
C1257       C  0.89477623  0.74938269  0.15069616    -0.27200
C1258       C  0.91391961  0.72059999  0.16133223    -0.15300
C1259       C  0.91140061  0.70787936  0.19556924     0.35300
C1260       C  0.88790526  0.72289018  0.21839946    -0.26700
C1261       C  0.86708939  0.75032927  0.20727800    -0.15900
C1262       C  0.87101761  0.76442504  0.17351844     0.36400
N1263       N  0.85029563  0.79325210  0.16237961    -0.90200
H1264       H  0.89835936  0.75994376  0.12471213     0.17500
H1265       H  0.88433005  0.71164679  0.24410702     0.17500
N1266       N  0.93283082  0.67975869  0.20711513    -0.89200
H1267       H  0.85604542  0.79990056  0.13647750     0.34900
H1268       H  0.85731430  0.81448924  0.17729130     0.40000
H1269       H  0.94733184  0.68844738  0.22842323     0.39600
H1270       H  0.91673998  0.65955333  0.21565848     0.34500
C1271       C  0.16022447  0.67397004  0.69471278    -0.27200
C1272       C  0.19251384  0.68735187  0.68367408    -0.15300
C1273       C  0.20813022  0.67324679  0.65367855     0.35300
C1274       C  0.19105543  0.64604670  0.63571824    -0.26700
C1275       C  0.15853160  0.63380497  0.64684221    -0.15900
C1276       C  0.14316959  0.64793445  0.67648887     0.36400
N1277       N  0.11069828  0.63483899  0.68904537    -0.90200
H1278       H  0.14753027  0.68383270  0.71783845     0.17500
H1279       H  0.20323701  0.63403132  0.61337440     0.17500
N1280       N  0.24068812  0.68654132  0.64145243    -0.89200
H1281       H  0.09330278  0.65559428  0.69011776     0.34900
H1282       H  0.11435450  0.62558120  0.71443378     0.40000
H1283       H  0.24802637  0.67382068  0.61856796     0.39600
H1284       H  0.25934746  0.68044263  0.66020815     0.34500
C1285       C  0.26887750  0.59337921  0.81228572    -0.27200
C1286       C  0.30350063  0.59514398  0.82336132    -0.15300
C1287       C  0.32114034  0.62723843  0.82217023     0.35300
C1288       C  0.30322980  0.65715515  0.81271171    -0.26700
C1289       C  0.26793080  0.65616460  0.80421226    -0.15900
C1290       C  0.25073527  0.62367499  0.80284288     0.36400
N1291       N  0.21479729  0.62161928  0.79336927    -0.90200
H1292       H  0.25548749  0.56854709  0.81264351     0.17500
H1293       H  0.31689508  0.68160556  0.81302953     0.17500
N1294       N  0.35729003  0.63023669  0.82993727    -0.89200
H1295       H  0.20639211  0.59572029  0.79312984     0.34900
H1296       H  0.20059711  0.63414108  0.81280508     0.40000
H1297       H  0.37085973  0.61287739  0.81410440     0.39600
H1298       H  0.36145409  0.62372698  0.85602734     0.34500
C1299       C  0.38923916  0.70477093  0.77436530    -0.27200
C1300       C  0.39600229  0.70854855  0.81024078    -0.15300
C1301       C  0.37379804  0.72856841  0.83088978     0.35300
C1302       C  0.34563698  0.74487419  0.81532908    -0.26700
C1303       C  0.33825723  0.74144014  0.77936773    -0.15900
C1304       C  0.36014099  0.72040265  0.75884667     0.36400
N1305       N  0.35358453  0.71434782  0.72264435    -0.90200
H1306       H  0.40659990  0.68948878  0.75842615     0.17500
H1307       H  0.32916525  0.76032171  0.83202404     0.17500
N1308       N  0.38045066  0.73314028  0.86753455    -0.89200
H1309       H  0.35306496  0.73827961  0.70970580     0.34900
H1310       H  0.32929769  0.70255388  0.72024804     0.40000
H1311       H  0.36111368  0.74809368  0.87919717     0.39600
H1312       H  0.40345985  0.74729985  0.87001600     0.34500
C1313       C  0.37103706  0.90218597  0.69605309    -0.27200
C1314       C  0.36683537  0.86827999  0.70891006    -0.15300
C1315       C  0.39422792  0.84432722  0.70495065     0.35300
C1316       C  0.42436846  0.85453573  0.68708371    -0.26700
C1317       C  0.42823580  0.88850446  0.67352261    -0.15900
C1318       C  0.40101128  0.91267221  0.67894021     0.36400
N1319       N  0.40299315  0.94849798  0.66862259    -0.90200
H1320       H  0.35071902  0.92123732  0.69966336     0.17500
H1321       H  0.44489457  0.83569385  0.68381220     0.17500
N1322       N  0.39198893  0.80946844  0.71804625    -0.89200
H1323       H  0.40384865  0.95015743  0.64146315     0.34900
H1324       H  0.42501147  0.95984907  0.67969885     0.40000
H1325       H  0.38941908  0.81043320  0.74513866     0.39600
H1326       H  0.36988275  0.79780919  0.70757728     0.34500
C1327       C  0.27250413  0.86869908  0.61852005    -0.27200
C1328       C  0.28377500  0.83653298  0.63231804    -0.15300
C1329       C  0.31338392  0.82076805  0.61773436     0.35300
C1330       C  0.33085560  0.83749711  0.59027102    -0.26700
C1331       C  0.31973458  0.86993302  0.57761111    -0.15900
C1332       C  0.29017929  0.88553553  0.59166656     0.36400
N1333       N  0.27725608  0.91765578  0.57739306    -0.90200
H1334       H  0.24955437  0.88115457  0.62868911     0.17500
H1335       H  0.35283235  0.82484500  0.57827965     0.17500
N1336       N  0.32614491  0.78800997  0.62991896    -0.89200
H1337       H  0.29551172  0.93707349  0.58266859     0.34900
H1338       H  0.25442639  0.92509939  0.58989851     0.40000
H1339       H  0.30658123  0.76938609  0.62704118     0.39600
H1340       H  0.33219483  0.79036418  0.65635136     0.34500
C1341       C  0.15633902  0.76005005  0.53802222    -0.27200
C1342       C  0.13890033  0.72790698  0.53852840    -0.15300
C1343       C  0.13482174  0.71017629  0.57033007     0.35300
C1344       C  0.14644899  0.72544752  0.60120045    -0.26700
C1345       C  0.16187890  0.75864207  0.60129135    -0.15900
C1346       C  0.16768448  0.77568195  0.56911985     0.36400
N1347       N  0.18369530  0.80934642  0.56787949    -0.90200
H1348       H  0.15990770  0.77380182  0.51358597     0.17500
H1349       H  0.14230374  0.71151532  0.62541271     0.17500
N1350       N  0.11907773  0.67640575  0.57134616    -0.89200
H1351       H  0.16642378  0.82665334  0.55610388     0.34900
H1352       H  0.20564167  0.80767843  0.55207005     0.40000
H1353       H  0.09817100  0.67719902  0.58859804     0.39600
H1354       H  0.13730261  0.65892226  0.58107111     0.34500
C1355       C  0.09513898  0.73501747  0.80183379    -0.27200
C1356       C  0.10697735  0.76895105  0.80931999    -0.15300
C1357       C  0.09238875  0.78676121  0.83787115     0.35300
C1358       C  0.06555903  0.77099984  0.85722019    -0.26700
C1359       C  0.05384646  0.73729844  0.84919188    -0.15900
C1360       C  0.06909965  0.71917919  0.82135417     0.36400
N1361       N  0.05761739  0.68509723  0.81139658    -0.90200
H1362       H  0.10606113  0.72042325  0.78037268     0.17500
H1363       H  0.05338840  0.78536947  0.87813673     0.17500
N1364       N  0.10451948  0.82070703  0.84728077    -0.89200
H1365       H  0.03129078  0.68620869  0.80525964     0.34900
H1366       H  0.06090351  0.66833226  0.83262319     0.40000
H1367       H  0.11328680  0.81963670  0.87304911     0.39600
H1368       H  0.08356164  0.83780261  0.84628548     0.34500
C1369       C  0.07807528  0.88363406  0.67287685    -0.27200
C1370       C  0.07747876  0.84965129  0.68642806    -0.15300
C1371       C  0.04500626  0.83285098  0.69124700     0.35300
C1372       C  0.01446771  0.85059619  0.68294228    -0.26700
C1373       C  0.01560376  0.88418422  0.66866701    -0.15900
C1374       C  0.04763380  0.90055107  0.66346106     0.36400
N1375       N  0.04919808  0.93492375  0.64927217    -0.90200
H1376       H  0.10239171  0.89714135  0.66881781     0.17500
H1377       H  0.98980677  0.83751231  0.68627355     0.17500
N1378       N  0.04205502  0.79749572  0.70285782    -0.89200
H1379       H  0.06585890  0.93480851  0.62780470     0.34900
H1380       H  0.05949184  0.95091273  0.66854820     0.40000
H1381       H  0.05218684  0.79551606  0.72802867     0.39600
H1382       H  0.05610497  0.78158147  0.68595435     0.34500
C1383       C  0.26972173  0.00513614  0.81917350    -0.27200
C1384       C  0.30101329  0.00714781  0.83800193    -0.15300
C1385       C  0.32142870  0.97667671  0.84149668     0.35300
C1386       C  0.31081222  0.94607447  0.82519904    -0.26700
C1387       C  0.28079534  0.94464371  0.80473891    -0.15900
C1388       C  0.25938250  0.97416363  0.80250143     0.36400
N1389       N  0.22747246  0.97270010  0.78329807    -0.90200
H1390       H  0.25353500  0.02796569  0.81677954     0.17500
H1391       H  0.32739369  0.92347234  0.82719261     0.17500
N1392       N  0.35365296  0.97676281  0.86030273    -0.89200
H1393       H  0.21127010  0.95482704  0.79590177     0.34900
H1394       H  0.21486959  0.99672083  0.78407412     0.40000
H1395       H  0.37201107  0.98902127  0.84441888     0.39600
H1396       H  0.36267183  0.95142032  0.86423465     0.34500
C1397       C  0.15124936  0.96464475  0.67492660    -0.27200
C1398       C  0.12146658  0.97613173  0.69150017    -0.15300
C1399       C  0.11140065  0.96090596  0.72351820     0.35300
C1400       C  0.13094181  0.93306451  0.73754333    -0.26700
C1401       C  0.16094124  0.92131957  0.72063433    -0.15900
C1402       C  0.17135778  0.93819741  0.68922727     0.36400
N1403       N  0.20264059  0.92887615  0.67150393    -0.90200
H1404       H  0.15970057  0.97715693  0.65101670     0.17500
H1405       H  0.12258151  0.92038326  0.76134310     0.17500
N1406       N  0.08107798  0.97323859  0.74114303    -0.89200
H1407       H  0.21841849  0.95097137  0.66978704     0.34900
H1408       H  0.19626178  0.92104521  0.64620401     0.40000
H1409       H  0.08588906  0.99888180  0.74887169     0.39600
H1410       H  0.07682787  0.95889761  0.76394201     0.34500
C1411       C  0.28967214  0.86410416  0.91623862    -0.27200
C1412       C  0.28184436  0.89935622  0.92035220    -0.15300
C1413       C  0.25591983  0.91441882  0.89928087     0.35300
C1414       C  0.23965097  0.89439297  0.87326553    -0.26700
C1415       C  0.24837011  0.85921774  0.86832706    -0.15900
C1416       C  0.27309730  0.84379222  0.89083501     0.36400
N1417       N  0.28124535  0.80740976  0.88791155    -0.90200
H1418       H  0.30836300  0.85214668  0.93357279     0.17500
H1419       H  0.22101642  0.90667885  0.85613774     0.17500
N1420       N  0.24565369  0.94987192  0.90390400    -0.89200
H1421       H  0.30077187  0.80048998  0.90545327     0.34900
H1422       H  0.25923365  0.79347177  0.89543847     0.40000
H1423       H  0.26749466  0.96567771  0.90077035     0.39600
H1424       H  0.23671188  0.95279247  0.92944128     0.34500
C1425       C  0.13663531  0.69608869  0.92520410    -0.27200
C1426       C  0.13188013  0.72213369  0.95037161    -0.15300
C1427       C  0.14362892  0.75623022  0.94322385     0.35300
C1428       C  0.16216441  0.76297564  0.91245131    -0.26700
C1429       C  0.16831442  0.73636091  0.88832462    -0.15900
C1430       C  0.15480151  0.70268448  0.89446266     0.36400
N1431       N  0.16056554  0.67491013  0.87001371    -0.90200
H1432       H  0.12760977  0.66981307  0.93010460     0.17500
H1433       H  0.17142070  0.78913343  0.90722097     0.17500
N1434       N  0.13633208  0.78413300  0.96673930    -0.89200
H1435       H  0.14837766  0.65196369  0.87817424     0.34900
H1436       H  0.18711034  0.66980676  0.86966189     0.40000
H1437       H  0.12233615  0.80303248  0.95310927     0.39600
H1438       H  0.15982812  0.79524422  0.97445184     0.34500
C1439       C  0.75656214  0.45681436  0.68411387    -0.27200
C1440       C  0.78006765  0.44246235  0.70763472    -0.15300
C1441       C  0.81547679  0.45077734  0.70578264     0.35300
C1442       C  0.82709907  0.47319151  0.67997756    -0.26700
C1443       C  0.80366540  0.48797903  0.65657655    -0.15900
C1444       C  0.76815333  0.47973488  0.65832905     0.36400
N1445       N  0.74424824  0.49482791  0.63395849    -0.90200
H1446       H  0.72972842  0.44859161  0.68460760     0.17500
H1447       H  0.85422816  0.48043079  0.67944447     0.17500
N1448       N  0.83969285  0.43562009  0.72970309    -0.89200
H1449       H  0.75085019  0.48578760  0.60916380     0.34900
H1450       H  0.71909358  0.48606021  0.63892604     0.40000
H1451       H  0.85804531  0.42179583  0.71533636     0.39600
H1452       H  0.85247946  0.45577373  0.74275577     0.34500
C1453       C  0.64675018  0.42466685  0.81835145    -0.27200
C1454       C  0.65520079  0.42084957  0.78275889    -0.15300
C1455       C  0.65044268  0.45036286  0.76118316     0.35300
C1456       C  0.63899888  0.48263989  0.77550671    -0.26700
C1457       C  0.63119815  0.48667438  0.81139448    -0.15900
C1458       C  0.63466161  0.45654414  0.83270004     0.36400
N1459       N  0.62694818  0.45839659  0.86928304    -0.90200
H1460       H  0.65024979  0.40254368  0.83551983     0.17500
H1461       H  0.63643769  0.50484741  0.75826683     0.17500
N1462       N  0.65845990  0.44820965  0.72485043    -0.89200
H1463       H  0.62969100  0.43400249  0.88108015     0.34900
H1464       H  0.64538992  0.47470862  0.88077286     0.40000
H1465       H  0.67737285  0.46691712  0.71929231     0.39600
H1466       H  0.63619509  0.45466140  0.71080780     0.34500
C1467       C  0.54615859  0.37546029  0.85538632    -0.27200
C1468       C  0.53014578  0.39357067  0.82814528    -0.15300
C1469       C  0.53643583  0.38417805  0.79332010     0.35300
C1470       C  0.55950669  0.35724168  0.78620131    -0.26700
C1471       C  0.57552671  0.33945069  0.81359022    -0.15900
C1472       C  0.56805291  0.34792789  0.84857151     0.36400
N1473       N  0.58238798  0.32917633  0.87770252    -0.90200
H1474       H  0.54002114  0.38123045  0.88233511     0.17500
H1475       H  0.56625835  0.35145959  0.75940747     0.17500
N1476       N  0.51964140  0.40216386  0.76533905    -0.89200
H1477       H  0.59998538  0.34563468  0.89028607     0.34900
H1478       H  0.59576898  0.30698227  0.86980491     0.40000
H1479       H  0.53874973  0.41279692  0.74920941     0.39600
H1480       H  0.50567993  0.38389449  0.75080920     0.34500
C1481       C  0.57488687  0.29126145  0.66996408    -0.27200
C1482       C  0.59550975  0.26872216  0.69029141    -0.15300
C1483       C  0.58432649  0.23318373  0.69283850     0.35300
C1484       C  0.55432875  0.22173227  0.67574083    -0.26700
C1485       C  0.53341970  0.24420601  0.65637074    -0.15900
C1486       C  0.54409168  0.27953748  0.65340525     0.36400
N1487       N  0.52473387  0.30388028  0.63301177    -0.90200
H1488       H  0.58256147  0.31825199  0.66703538     0.17500
H1489       H  0.54678919  0.19464766  0.67843338     0.17500
N1490       N  0.60263098  0.20737684  0.71249581    -0.89200
H1491       H  0.52254337  0.29408725  0.60769513     0.34900
H1492       H  0.49997105  0.30591004  0.64363714     0.40000
H1493       H  0.62757967  0.20466876  0.70249124     0.39600
H1494       H  0.60340051  0.21470159  0.73869890     0.34500
C1495       C  0.62867851  0.23443119  0.60917397    -0.27200
C1496       C  0.65649199  0.25817515  0.60825448    -0.15300
C1497       C  0.66118530  0.27891191  0.57822625     0.35300
C1498       C  0.64139891  0.27164773  0.54833354    -0.26700
C1499       C  0.61658509  0.24465761  0.54817573    -0.15900
C1500       C  0.60833803  0.22788478  0.57985171     0.36400
N1501       N  0.58042806  0.20310133  0.58191635    -0.90200
H1502       H  0.62344082  0.21955476  0.63255061     0.17500
H1503       H  0.64685146  0.28591621  0.52458226     0.17500
N1504       N  0.68670157  0.30619324  0.57759020    -0.89200
H1505       H  0.55744882  0.21664080  0.57738686     0.34900
H1506       H  0.57851236  0.19244241  0.60693836     0.40000
H1507       H  0.67874353  0.32515694  0.59533118     0.39600
H1508       H  0.68732803  0.31831798  0.55317218     0.34500
C1509       C  0.78706160  0.37394119  0.63782705    -0.27200
C1510       C  0.75047592  0.37319402  0.63889146    -0.15300
C1511       C  0.73241059  0.39086800  0.61227279     0.35300
C1512       C  0.75119731  0.40536739  0.58375851    -0.26700
C1513       C  0.78779303  0.40421988  0.58231701    -0.15900
C1514       C  0.80555346  0.38956890  0.61060175     0.36400
N1515       N  0.84257252  0.38809855  0.61071411    -0.90200
H1516       H  0.80201814  0.36077675  0.65769165     0.17500
H1517       H  0.73722163  0.41687256  0.56216397     0.17500
N1518       N  0.69535843  0.39266885  0.61330667    -0.89200
H1519       H  0.84995050  0.36196291  0.61198131     0.34900
H1520       H  0.85142582  0.40048478  0.63328334     0.40000
H1521       H  0.68603363  0.40592505  0.59142816     0.39600
H1522       H  0.68865391  0.40765680  0.63498142     0.34500
C1523       C  0.80336653  0.17751926  0.66339827    -0.27200
C1524       C  0.77249229  0.17104801  0.68171685    -0.15300
C1525       C  0.76616018  0.13788768  0.69571563     0.35300
C1526       C  0.79023471  0.11163137  0.69033229    -0.26700
C1527       C  0.82005391  0.11741870  0.66999168    -0.15900
C1528       C  0.82699778  0.15117767  0.65715385     0.36400
N1529       N  0.85743233  0.15961266  0.63754884    -0.90200
H1530       H  0.80892327  0.20310670  0.65286119     0.17500
H1531       H  0.78406356  0.08595624  0.70031663     0.17500
N1532       N  0.73468702  0.13017471  0.71392331    -0.89200
H1533       H  0.85585577  0.14825317  0.61290609     0.34900
H1534       H  0.87896051  0.14988857  0.65080882     0.40000
H1535       H  0.74104278  0.12122103  0.73885675     0.39600
H1536       H  0.72194285  0.11007505  0.70073158     0.34500
C1537       C  0.66152173  0.15966958  0.78694335    -0.27200
C1538       C  0.69125769  0.17591998  0.80133112    -0.15300
C1539       C  0.70631313  0.15963968  0.83127930     0.35300
C1540       C  0.69100514  0.12911424  0.84543319    -0.26700
C1541       C  0.66046389  0.11453181  0.83178398    -0.15900
C1542       C  0.64614740  0.12964455  0.80166420     0.36400
N1543       N  0.61606172  0.11423849  0.78583308    -0.90200
H1544       H  0.64969348  0.17066330  0.76384120     0.17500
H1545       H  0.70265119  0.11718277  0.86819211     0.17500
N1546       N  0.73593070  0.17331318  0.84934762    -0.89200
H1547       H  0.60844886  0.12849587  0.76389958     0.34900
H1548       H  0.62302024  0.08953560  0.77689409     0.40000
H1549       H  0.74435929  0.19705528  0.83957020     0.39600
H1550       H  0.75616206  0.15560900  0.84625271     0.34500
C1551       C  0.90569362  0.34595529  0.83237795    -0.27200
C1552       C  0.91030107  0.38111244  0.84181237    -0.15300
C1553       C  0.88671113  0.40642284  0.82982336     0.35300
C1554       C  0.85877364  0.39591924  0.80968196    -0.26700
C1555       C  0.85412582  0.36104838  0.80015609    -0.15900
C1556       C  0.87763101  0.33572228  0.81153667     0.36400
N1557       N  0.87262413  0.29982475  0.80281916    -0.90200
H1558       H  0.92400946  0.32646782  0.84104298     0.17500
H1559       H  0.84065682  0.41546143  0.80070549     0.17500
N1560       N  0.89184303  0.44291143  0.83664537    -0.89200
H1561       H  0.87058947  0.28565957  0.82603492     0.34900
H1562       H  0.89463367  0.29123242  0.78960960     0.40000
H1563       H  0.87128328  0.45768078  0.82696585     0.39600
H1564       H  0.91377977  0.45085196  0.82277658     0.34500
C1565       C  0.88374011  0.24425288  0.66485996    -0.27200
C1566       C  0.90194719  0.21787873  0.68223790    -0.15300
C1567       C  0.88739083  0.20495816  0.71375203     0.35300
C1568       C  0.85558125  0.21875617  0.72703148    -0.26700
C1569       C  0.83747176  0.24566720  0.70978078    -0.15900
C1570       C  0.85243484  0.25820604  0.67804411     0.36400
N1571       N  0.83608632  0.28555786  0.65872067    -0.90200
H1572       H  0.89424792  0.25472042  0.64083153     0.17500
H1573       H  0.84485093  0.20826158  0.75091400     0.17500
N1574       N  0.90446260  0.17707588  0.73175717    -0.89200
H1575       H  0.85353626  0.30630010  0.65653837     0.34900
H1576       H  0.83071431  0.27635571  0.63365876     0.40000
H1577       H  0.89033823  0.16971088  0.75380846     0.39600
H1578       H  0.92822757  0.18654974  0.74069898     0.34500
C1579       C  0.79076014  0.38594058  0.89796577    -0.27200
C1580       C  0.81481804  0.36797717  0.91792060    -0.15300
C1581       C  0.81940900  0.33190960  0.91193751     0.35300
C1582       C  0.80181052  0.31511238  0.88425824    -0.26700
C1583       C  0.77755469  0.33324803  0.86405994    -0.15900
C1584       C  0.77123563  0.36902856  0.87241683     0.36400
N1585       N  0.74434741  0.38862709  0.85570659    -0.90200
H1586       H  0.78528618  0.41298047  0.90381518     0.17500
H1587       H  0.80642120  0.28777879  0.87927190     0.17500
N1588       N  0.84152023  0.31216241  0.93436527    -0.89200
H1589       H  0.75542399  0.41053407  0.84390905     0.34900
H1590       H  0.72699028  0.39708114  0.87478181     0.40000
H1591       H  0.86052672  0.30050372  0.91900377     0.39600
H1592       H  0.82668403  0.29238997  0.94578763     0.34500
C1593       C  0.67429638  0.23731053  0.95334800    -0.27200
C1594       C  0.65709290  0.20508293  0.95296065    -0.15300
C1595       C  0.64852780  0.18976222  0.92079578     0.35300
C1596       C  0.65436755  0.20810327  0.88991783    -0.26700
C1597       C  0.66873120  0.24175272  0.89026179    -0.15900
C1598       C  0.68051733  0.25580012  0.92234020     0.36400
N1599       N  0.69737938  0.28921786  0.92373038    -0.90200
H1600       H  0.68136800  0.24900658  0.97802926     0.17500
H1601       H  0.64629239  0.19625154  0.86562677     0.17500
N1602       N  0.63311214  0.15582109  0.91940303    -0.89200
H1603       H  0.72143282  0.28664890  0.91157362     0.34900
H1604       H  0.70256472  0.29635224  0.94950361     0.40000
H1605       H  0.60943473  0.15775950  0.90636525     0.39600
H1606       H  0.64927074  0.13970160  0.90486497     0.34500
C1607       C  0.64014432  0.44793301  0.18189394    -0.27200
C1608       C  0.67600123  0.44855113  0.18810267    -0.15300
C1609       C  0.69359825  0.48069994  0.18702115     0.35300
C1610       C  0.67531979  0.51124146  0.17891535    -0.26700
C1611       C  0.63972304  0.51023526  0.17142877    -0.15900
C1612       C  0.62186039  0.47829305  0.17402193     0.36400
N1613       N  0.58516243  0.47600316  0.16938375    -0.90200
H1614       H  0.62627798  0.42350415  0.18241076     0.17500
H1615       H  0.68935316  0.53564175  0.17695482     0.17500
N1616       N  0.73027160  0.48221606  0.19209208    -0.89200
H1617       H  0.57333957  0.49308331  0.18686661     0.34900
H1618       H  0.57893182  0.48355318  0.14400039     0.40000
H1619       H  0.73532985  0.49925363  0.21269764     0.39600
H1620       H  0.74144585  0.49265632  0.16954732     0.34500
C1621       C  0.80046882  0.46105160  0.32653131    -0.27200
C1622       C  0.78001202  0.47722191  0.35130084    -0.15300
C1623       C  0.74589473  0.46512852  0.35701109     0.35300
C1624       C  0.73304749  0.43675379  0.33758958    -0.26700
C1625       C  0.75351755  0.42091551  0.31185296    -0.15900
C1626       C  0.78769812  0.43376633  0.30655230     0.36400
N1627       N  0.80990952  0.41982008  0.28035938    -0.90200
H1628       H  0.82639010  0.47071083  0.32143663     0.17500
H1629       H  0.70708704  0.42727391  0.34250264     0.17500
N1630       N  0.72415092  0.48083006  0.38267235    -0.89200
H1631       H  0.83230018  0.41063413  0.29255174     0.34900
H1632       H  0.81689869  0.44017363  0.26361391     0.40000
H1633       H  0.72089859  0.50704992  0.37618970     0.39600
H1634       H  0.73685484  0.47949728  0.40670797     0.34500
C1635       C  0.77453374  0.36115941  0.45556466    -0.27200
C1636       C  0.80048763  0.38697489  0.45542010    -0.15300
C1637       C  0.81664038  0.39543021  0.42343531     0.35300
C1638       C  0.80801653  0.37724921  0.39329168    -0.26700
C1639       C  0.78337207  0.35032961  0.39341417    -0.15900
C1640       C  0.76582568  0.34261617  0.42497813     0.36400
N1641       N  0.73939135  0.31621433  0.42613203    -0.90200
H1642       H  0.76174735  0.35456293  0.47981591     0.17500
H1643       H  0.82142637  0.38436023  0.36951519     0.17500
N1644       N  0.84211045  0.42252506  0.42105189    -0.89200
H1645       H  0.75149225  0.29212678  0.42303530     0.34900
H1646       H  0.72763437  0.31552804  0.45066022     0.40000
H1647       H  0.83362284  0.44076509  0.40274623     0.39600
H1648       H  0.86510078  0.41164177  0.41181987     0.34500
C1649       C  0.67578562  0.24676817  0.38354288    -0.27200
C1650       C  0.66378034  0.27776592  0.36809718    -0.15300
C1651       C  0.63390682  0.29355142  0.38166816     0.35300
C1652       C  0.61593465  0.27728966  0.40921476    -0.26700
C1653       C  0.62688297  0.24508346  0.42281281    -0.15900
C1654       C  0.65806322  0.23041417  0.41067033     0.36400
N1655       N  0.67307342  0.19943767  0.42543091    -0.90200
H1656       H  0.69925508  0.23458460  0.37418855     0.17500
H1657       H  0.59302437  0.28960250  0.41970162     0.17500
N1658       N  0.62120655  0.32536241  0.36709073    -0.89200
H1659       H  0.69702912  0.20636247  0.43608370     0.34900
H1660       H  0.65849720  0.18931668  0.44593021     0.40000
H1661       H  0.59601188  0.32093362  0.35818857     0.39600
H1662       H  0.62010943  0.34384553  0.38702020     0.34500
C1663       C  0.66692215  0.12978647  0.21834975    -0.27200
C1664       C  0.64975098  0.16042696  0.20872822    -0.15300
C1665       C  0.62037702  0.15818185  0.18676351     0.35300
C1666       C  0.61031877  0.12609258  0.17327457    -0.26700
C1667       C  0.62820115  0.09552726  0.18168375    -0.15900
C1668       C  0.65621816  0.09737036  0.20539328     0.36400
N1669       N  0.67362852  0.06656091  0.21689652    -0.90200
H1670       H  0.68872197  0.13088369  0.23609381     0.17500
H1671       H  0.58819779  0.12541205  0.15593297     0.17500
N1672       N  0.59991270  0.18820758  0.17864022    -0.89200
H1673       H  0.69981559  0.06898093  0.21054954     0.34900
H1674       H  0.67159337  0.06515472  0.24404469     0.40000
H1675       H  0.57462775  0.18362531  0.18721772     0.39600
H1676       H  0.59934054  0.19120656  0.15155300     0.34500
C1677       C  0.81092080  0.17856691  0.27118927    -0.27200
C1678       C  0.77639878  0.18534798  0.28043976    -0.15300
C1679       C  0.76076621  0.16503852  0.30693808     0.35300
C1680       C  0.77996703  0.13980862  0.32454025    -0.26700
C1681       C  0.81444608  0.13342028  0.31585619    -0.15900
C1682       C  0.82984223  0.15234403  0.28830302     0.36400
N1683       N  0.86424157  0.14486856  0.27681722    -0.90200
H1684       H  0.82340307  0.19405412  0.25116536     0.17500
H1685       H  0.76735706  0.12406006  0.34432987     0.17500
N1686       N  0.72504781  0.16963594  0.31580069    -0.89200
H1687       H  0.88095857  0.14761769  0.29805082     0.34900
H1688       H  0.86502738  0.11890464  0.26874627     0.40000
H1689       H  0.72354856  0.17586721  0.34227310     0.39600
H1690       H  0.71220803  0.14594870  0.31196085     0.34500
C1691       C  0.77210487  0.33972996  0.07834926    -0.27200
C1692       C  0.77480724  0.36280578  0.10649986    -0.15300
C1693       C  0.79745883  0.39175487  0.10383147     0.35300
C1694       C  0.81625840  0.39717067  0.07345442    -0.26700
C1695       C  0.81197476  0.37563516  0.04434046    -0.15900
C1696       C  0.79041630  0.34587043  0.04728265     0.36400
N1697       N  0.78651891  0.32206487  0.01886345    -0.90200
H1698       H  0.75541420  0.31708288  0.08022698     0.17500
H1699       H  0.83289907  0.41989191  0.07230216     0.17500
N1700       N  0.80032851  0.41704186  0.13116499    -0.89200
H1701       H  0.76031866  0.32096011  0.01216712     0.34900
H1702       H  0.79395805  0.29735649  0.02747859     0.40000
H1703       H  0.82626430  0.41872416  0.13867939     0.39600
H1704       H  0.79297052  0.44126762  0.12118724     0.34500
C1705       C  0.65686067  0.25126914  0.12094729    -0.27200
C1706       C  0.68982816  0.24224808  0.13378783    -0.15300
C1707       C  0.70698030  0.21341938  0.11913752     0.35300
C1708       C  0.69124435  0.19485215  0.09168279    -0.26700
C1709       C  0.65828916  0.20412115  0.07940599    -0.15900
C1710       C  0.64112001  0.23253233  0.09416215     0.36400
N1711       N  0.60817869  0.24336266  0.08093733    -0.90200
H1712       H  0.64293482  0.27323144  0.13163473     0.17500
H1713       H  0.70492218  0.17343395  0.07966061     0.17500
N1714       N  0.74014219  0.20290809  0.13189214    -0.89200
H1715       H  0.61053648  0.26906448  0.07219509     0.34900
H1716       H  0.59049020  0.24298570  0.10153197     0.40000
H1717       H  0.73811959  0.17712580  0.14046427     0.39600
H1718       H  0.75757953  0.20360548  0.11108695     0.34500
C1719       C  0.01293930  0.35481929  0.19021014    -0.27200
C1720       C  0.01540771  0.36314815  0.15456107    -0.15300
C1721       C  0.04821487  0.36378617  0.13849508     0.35300
C1722       C  0.07754763  0.35701326  0.15831235    -0.26700
C1723       C  0.07552064  0.35052596  0.19426690    -0.15900
C1724       C  0.04262657  0.34887095  0.21030916     0.36400
N1725       N  0.03859681  0.34320498  0.24700769    -0.90200
H1726       H  0.98792234  0.35473404  0.20295067     0.17500
H1727       H  0.10241025  0.35814367  0.14556295     0.17500
N1728       N  0.05273277  0.37123756  0.10215214    -0.89200
H1729       H  0.05264685  0.36228330  0.26037614     0.34900
H1730       H  0.04855738  0.31872290  0.25326427     0.40000
H1731       H  0.03686715  0.35452904  0.08773896     0.39600
H1732       H  0.04567919  0.39698958  0.09720459     0.34500
C1733       C  0.84897012  0.31335975  0.15703210    -0.27200
C1734       C  0.83700405  0.33211179  0.18614836    -0.15300
C1735       C  0.85268352  0.36472884  0.19348124     0.35300
C1736       C  0.87880157  0.37793495  0.17217152    -0.26700
C1737       C  0.89103368  0.35921875  0.14384252    -0.15900
C1738       C  0.87629843  0.32649239  0.13619339     0.36400
N1739       N  0.88906447  0.30661635  0.10747792    -0.90200
H1740       H  0.83729171  0.28854502  0.15050539     0.17500
H1741       H  0.89080381  0.40259037  0.17892824     0.17500
N1742       N  0.84261287  0.38486071  0.22297159    -0.89200
H1743       H  0.89741489  0.28257865  0.11707562     0.34900
H1744       H  0.86845297  0.30204858  0.09040911     0.40000
H1745       H  0.83442395  0.40910463  0.21376025     0.39600
H1746       H  0.86443938  0.38870590  0.23863834     0.34500
C1747       C  0.05244587  0.20995494  0.27588447    -0.27200
C1748       C  0.05284585  0.20516147  0.31250530    -0.15300
C1749       C  0.08294869  0.21467894  0.33079190     0.35300
C1750       C  0.11084463  0.22979907  0.31298381    -0.26700
C1751       C  0.11038421  0.23579006  0.27664554    -0.15900
C1752       C  0.08074777  0.22504829  0.25789418     0.36400
N1753       N  0.07776191  0.23097011  0.22116966    -0.90200
H1754       H  0.02947722  0.20302538  0.26123673     0.17500
H1755       H  0.13257173  0.23853122  0.32847380     0.17500
N1756       N  0.08466832  0.21129190  0.36794860    -0.89200
H1757       H  0.09802910  0.21811550  0.20867675     0.34900
H1758       H  0.08037578  0.25767253  0.21648893     0.40000
H1759       H  0.08882680  0.23600802  0.37856702     0.39600
H1760       H  0.10598798  0.19576750  0.37409113     0.34500
C1761       C  0.92456480  0.23751182  0.29670681    -0.27200
C1762       C  0.92574802  0.21398472  0.32491970    -0.15300
C1763       C  0.89461649  0.20674603  0.34298249     0.35300
C1764       C  0.86414914  0.22402862  0.33391532    -0.26700
C1765       C  0.86321910  0.24895489  0.30710270    -0.15900
C1766       C  0.89372594  0.25499884  0.28753450     0.36400
N1767       N  0.89360455  0.27912044  0.25883532    -0.90200
H1768       H  0.94798914  0.24309276  0.28225340     0.17500
H1769       H  0.84110539  0.21826541  0.34894440     0.17500
N1770       N  0.89351053  0.18213906  0.37106792    -0.89200
H1771       H  0.87739604  0.26886084  0.23956538     0.34900
H1772       H  0.91822476  0.28110256  0.24773716     0.40000
H1773       H  0.88530536  0.19510336  0.39351005     0.39600
H1774       H  0.87499446  0.16326875  0.36503465     0.34500
C1775       C  0.37030295  0.81632973  0.32105977    -0.27200
C1776       C  0.34599200  0.83973016  0.30677727    -0.15300
C1777       C  0.35507563  0.87578469  0.30713633     0.35300
C1778       C  0.38651984  0.88730210  0.32181207    -0.26700
C1779       C  0.41092537  0.86416527  0.33554203    -0.15900
C1780       C  0.40262019  0.82814624  0.33483755     0.36400
N1781       N  0.42666586  0.80343098  0.34858102    -0.90200
H1782       H  0.36456842  0.78871559  0.32101682     0.17500
H1783       H  0.39216923  0.91495670  0.32169996     0.17500
N1784       N  0.33197253  0.90147512  0.29336509    -0.89200
H1785       H  0.43275541  0.78586562  0.32875078     0.34900
H1786       H  0.41434024  0.78959051  0.36853463     0.40000
H1787       H  0.32592264  0.91895372  0.31329024     0.39600
H1788       H  0.34491972  0.91520772  0.27373101     0.34500
C1789       C  0.42068447  0.75071943  0.16872567    -0.27200
C1790       C  0.41671874  0.71530441  0.17674029    -0.15300
C1791       C  0.39120223  0.70435412  0.20007838     0.35300
C1792       C  0.36648158  0.72838411  0.21107745    -0.26700
C1793       C  0.36823643  0.76315348  0.19977210    -0.15900
C1794       C  0.39682051  0.77491188  0.18051724     0.36400
N1795       N  0.40125341  0.81081802  0.17135221    -0.90200
H1796       H  0.44214840  0.75943651  0.15271377     0.17500
H1797       H  0.34523625  0.71975641  0.22727790     0.17500
N1798       N  0.39037230  0.66912189  0.21221502    -0.89200
H1799       H  0.37980967  0.81890329  0.15689174     0.34900
H1800       H  0.40219657  0.82530944  0.19438498     0.40000
H1801       H  0.36674006  0.65831180  0.20488275     0.39600
H1802       H  0.39146193  0.66944397  0.23944584     0.34500
C1803       C  0.18197865  0.70812875  0.41035920    -0.27200
C1804       C  0.14577596  0.71292979  0.41245816    -0.15300
C1805       C  0.12903934  0.73091865  0.38560587     0.35300
C1806       C  0.14834881  0.74416801  0.35779342    -0.26700
C1807       C  0.18487769  0.74114651  0.35611127    -0.15900
C1808       C  0.20158618  0.72193103  0.38232747     0.36400
N1809       N  0.23828020  0.71750935  0.38144265    -0.90200
H1810       H  0.19527076  0.69472319  0.43129154     0.17500
H1811       H  0.13428206  0.75850637  0.33802683     0.17500
N1812       N  0.09281194  0.73841375  0.38782878    -0.89200
H1813       H  0.24857326  0.72799251  0.40435113     0.34900
H1814       H  0.24337566  0.69079786  0.38140262     0.40000
H1815       H  0.08085499  0.72910267  0.36525845     0.39600
H1816       H  0.08985264  0.76546941  0.38815621     0.34500
C1817       C  0.27573255  0.86183450  0.45465378    -0.27200
C1818       C  0.31047472  0.87259052  0.45243511    -0.15300
C1819       C  0.32667428  0.87427917  0.41979682     0.35300
C1820       C  0.30744583  0.86733224  0.38986291    -0.26700
C1821       C  0.27221235  0.85853566  0.39158962    -0.15900
C1822       C  0.25639705  0.85492280  0.42460591     0.36400
N1823       N  0.22052222  0.84633275  0.42847118    -0.90200
H1824       H  0.26297198  0.86051327  0.47976905     0.17500
H1825       H  0.32000815  0.86986801  0.36500733     0.17500
N1826       N  0.36258804  0.88317521  0.41691516    -0.89200
H1827       H  0.20583554  0.86459411  0.41472495     0.34900
H1828       H  0.21619896  0.82162784  0.41795086     0.40000
H1829       H  0.37523673  0.86259408  0.40457438     0.39600
H1830       H  0.36477095  0.90517573  0.40096238     0.34500
C1831       C  0.09143419  0.85355997  0.31009379    -0.27200
C1832       C  0.10329187  0.86506997  0.27699680    -0.15300
C1833       C  0.08202181  0.88924309  0.25922000     0.35300
C1834       C  0.05045505  0.90118458  0.27459738    -0.26700
C1835       C  0.03954628  0.89011235  0.30811860    -0.15900
C1836       C  0.06058019  0.86580180  0.32552952     0.36400
N1837       N  0.05043600  0.85291260  0.35906237    -0.90200
H1838       H  0.10650629  0.83486443  0.32478199     0.17500
H1839       H  0.03466794  0.91965902  0.26042422     0.17500
N1840       N  0.09227003  0.90193758  0.22571380    -0.89200
H1841       H  0.07025253  0.85860172  0.37673043     0.34900
H1842       H  0.04810481  0.82583563  0.35743033     0.40000
H1843       H  0.07261225  0.89591612  0.20797735     0.39600
H1844       H  0.09429637  0.92904010  0.22721201     0.34500
C1845       C  0.09220094  0.71910478  0.16407211    -0.27200
C1846       C  0.09021647  0.75001215  0.18360743    -0.15300
C1847       C  0.06062933  0.77083816  0.18098068     0.35300
C1848       C  0.03302433  0.75943022  0.16019850    -0.26700
C1849       C  0.03413788  0.72689574  0.14298675    -0.15900
C1850       C  0.06476735  0.70733715  0.14412795     0.36400
N1851       N  0.06771075  0.67425105  0.12723069    -0.90200
H1852       H  0.11486616  0.70261814  0.16517134     0.17500
H1853       H  0.00985889  0.77519945  0.15937102     0.17500
N1854       N  0.05819414  0.80299726  0.19963864    -0.89200
H1855       H  0.07137279  0.65527436  0.14644458     0.34900
H1856       H  0.08996047  0.67469007  0.11188780     0.40000
H1857       H  0.03666892  0.80156418  0.21607280     0.39600
H1858       H  0.05389592  0.82294185  0.18158510     0.34500
C1859       C  0.18530754  0.74695516  0.11150089    -0.27200
C1860       C  0.17009701  0.77676908  0.12655678    -0.15300
C1861       C  0.13656258  0.78612450  0.11514251     0.35300
C1862       C  0.11906886  0.76501924  0.09009579    -0.26700
C1863       C  0.13406175  0.73432783  0.07670610    -0.15900
C1864       C  0.16781641  0.72598978  0.08721410     0.36400
N1865       N  0.18490551  0.69639611  0.07257619    -0.90200
H1866       H  0.21114177  0.73922129  0.11914270     0.17500
H1867       H  0.09371123  0.77261703  0.08085955     0.17500
N1868       N  0.11999854  0.81622353  0.12954276    -0.89200
H1869       H  0.20754116  0.70507159  0.06038861     0.34900
H1870       H  0.19197283  0.67982658  0.09300924     0.40000
H1871       H  0.13417933  0.83806990  0.12164044     0.39600
H1872       H  0.09516325  0.81902196  0.11913738     0.34500
C1873       C  0.29936227  0.89856985  0.10822471    -0.27200
C1874       C  0.27943295  0.86792954  0.10870827    -0.15300
C1875       C  0.25973743  0.85913040  0.07886410     0.35300
C1876       C  0.26435293  0.87830288  0.04801436    -0.26700
C1877       C  0.28732796  0.90667277  0.04663511    -0.15900
C1878       C  0.30312557  0.91814206  0.07779087     0.36400
N1879       N  0.32362427  0.94927091  0.07867254    -0.90200
H1880       H  0.31305460  0.90713383  0.13134423     0.17500
H1881       H  0.25097179  0.87003241  0.02463364     0.17500
N1882       N  0.23554879  0.83062150  0.07965464    -0.89200
H1883       H  0.34848421  0.94280270  0.08720942     0.34900
H1884       H  0.31269178  0.96602141  0.09697236     0.40000
H1885       H  0.22394634  0.82717332  0.05527906     0.39600
H1886       H  0.21568408  0.83748271  0.09677705     0.34500
C1887       C  0.23281910  0.16139542  0.17027483    -0.27200
C1888       C  0.25517930  0.18993340  0.17535763    -0.15300
C1889       C  0.29054172  0.18513621  0.16652460     0.35300
C1890       C  0.30259242  0.15299900  0.15367814    -0.26700
C1891       C  0.28096933  0.12375089  0.15067195    -0.15900
C1892       C  0.24521120  0.12855772  0.15887739     0.36400
N1893       N  0.22063293  0.10073902  0.15616484    -0.90200
H1894       H  0.20575642  0.16396102  0.17707857     0.17500
H1895       H  0.32985638  0.15063475  0.14765677     0.17500
N1896       N  0.31505449  0.21265789  0.17120669    -0.89200
H1897       H  0.22683062  0.08151443  0.17439390     0.34900
H1898       H  0.22193312  0.09033242  0.13104908     0.40000
H1899       H  0.33425386  0.20389187  0.18823190     0.39600
H1900       H  0.32677399  0.21757588  0.14711954     0.34500
C1901       C  0.28774432  0.94613748  0.20252347    -0.27200
C1902       C  0.25537002  0.93242858  0.19214103    -0.15300
C1903       C  0.23708313  0.95044986  0.16578845     0.35300
C1904       C  0.25094357  0.98152852  0.15117880    -0.26700
C1905       C  0.28344988  0.99462410  0.16157005    -0.15900
C1906       C  0.30180424  0.97648273  0.18747661     0.36400
N1907       N  0.33467794  0.98922226  0.19916514    -0.90200
H1908       H  0.30270548  0.93309432  0.22250556     0.17500
H1909       H  0.23652162  0.99510670  0.13114474     0.17500
N1910       N  0.20478089  0.93713653  0.15332010    -0.89200
H1911       H  0.35299189  0.96967379  0.19516582     0.34900
H1912       H  0.33303390  0.99379651  0.22597066     0.40000
H1913       H  0.20721330  0.93263913  0.12656230     0.39600
H1914       H  0.18602426  0.95633264  0.15688684     0.34500
C1915       C  0.12955064  0.12726559  0.29246449    -0.27200
C1916       C  0.13045964  0.11827126  0.32800004    -0.15300
C1917       C  0.15767600  0.13057704  0.34928398     0.35300
C1918       C  0.18232840  0.15251834  0.33500230    -0.26700
C1919       C  0.18039370  0.16275487  0.30003317    -0.15900
C1920       C  0.15450753  0.14949227  0.27829743     0.36400
N1921       N  0.15296965  0.15937859  0.24233302    -0.90200
H1922       H  0.10976472  0.11643767  0.27559534     0.17500
H1923       H  0.20226697  0.16322733  0.35182187     0.17500
N1924       N  0.16167490  0.12055072  0.38506677    -0.89200
H1925       H  0.12877578  0.17044110  0.23765666     0.34900
H1926       H  0.15470071  0.13675725  0.22734246     0.40000
H1927       H  0.13996791  0.12871427  0.39900102     0.39600
H1928       H  0.16374099  0.09345974  0.38654790     0.34500
C1929       C  0.15054464  0.00285753  0.29537130    -0.27200
C1930       C  0.12092924  0.99776832  0.31630004    -0.15300
C1931       C  0.11185576  0.96415086  0.32714290     0.35300
C1932       C  0.13466670  0.93702958  0.32066905    -0.26700
C1933       C  0.16637469  0.94278795  0.30343237    -0.15900
C1934       C  0.17363759  0.97572393  0.28933041     0.36400
N1935       N  0.20523117  0.98238795  0.27094081    -0.90200
H1936       H  0.15774193  0.02860073  0.28628662     0.17500
H1937       H  0.12822206  0.91156397  0.33083431     0.17500
N1938       N  0.08065920  0.95816919  0.34660400    -0.89200
H1939       H  0.19901047  0.99183769  0.24615378     0.34900
H1940       H  0.21881782  0.00187404  0.28420565     0.40000
H1941       H  0.05986195  0.96328589  0.32996279     0.39600
H1942       H  0.07875170  0.93216681  0.35438438     0.34500
C1943       C  0.30624501  0.43932737  0.76026279    -0.27200
C1944       C  0.28970921  0.41285572  0.77926512    -0.15300
C1945       C  0.29034687  0.41532180  0.81661533     0.35300
C1946       C  0.30702685  0.44302276  0.83335399    -0.26700
C1947       C  0.32138860  0.47035610  0.81453276    -0.15900
C1948       C  0.32122353  0.46847978  0.77748372     0.36400
N1949       N  0.33541526  0.49675576  0.75744842    -0.90200
H1950       H  0.30572864  0.43836112  0.73206124     0.17500
H1951       H  0.30596265  0.44456212  0.86155371     0.17500
N1952       N  0.27235320  0.39080509  0.83832690    -0.89200
H1953       H  0.33361103  0.49148847  0.73078796     0.34900
H1954       H  0.36175007  0.49862564  0.76334937     0.40000
H1955       H  0.28984510  0.38062217  0.85644045     0.39600
H1956       H  0.25327425  0.40417694  0.85216650     0.34500
C1957       C  0.16336003  0.51045737  0.69155214    -0.27200
C1958       C  0.15467950  0.50912291  0.65598654    -0.15300
C1959       C  0.15606467  0.47734356  0.63823470     0.35300
C1960       C  0.16422210  0.44706910  0.65661675    -0.26700
C1961       C  0.17077118  0.44771867  0.69263919    -0.15900
C1962       C  0.17103547  0.47992717  0.71025793     0.36400
N1963       N  0.17735017  0.48139807  0.74716474    -0.90200
H1964       H  0.16227639  0.53511272  0.70518426     0.17500
H1965       H  0.16451376  0.42277376  0.64273603     0.17500
N1966       N  0.14919432  0.47574447  0.60156464    -0.89200
H1967       H  0.17685033  0.50714580  0.75592469     0.34900
H1968       H  0.15691396  0.46854332  0.75961030     0.40000
H1969       H  0.12851530  0.45860299  0.59759453     0.39600
H1970       H  0.17096106  0.46534761  0.58928405     0.34500
C1971       C  0.36675767  0.29168721  0.67111045    -0.27200
C1972       C  0.33855793  0.26897943  0.67669677    -0.15300
C1973       C  0.34385821  0.23327342  0.66840983     0.35300
C1974       C  0.37575891  0.22143484  0.65496292    -0.26700
C1975       C  0.40432905  0.24363329  0.65059479    -0.15900
C1976       C  0.39936849  0.27939612  0.65885758     0.36400
N1977       N  0.42736355  0.30355360  0.65502841    -0.90200
H1978       H  0.36402966  0.31895709  0.67765758     0.17500
H1979       H  0.37844944  0.19396529  0.64925956     0.17500
N1980       N  0.31702626  0.20820266  0.67401323    -0.89200
H1981       H  0.43201732  0.31499494  0.67929845     0.34900
H1982       H  0.41956403  0.32313161  0.63780058     0.40000
H1983       H  0.32663780  0.18908133  0.69077496     0.39600
H1984       H  0.31175524  0.19618340  0.65015212     0.34500
C1985       C  0.40162731  0.36139640  0.84724665    -0.27200
C1986       C  0.41012485  0.39148119  0.82843343    -0.15300
C1987       C  0.39637878  0.39672106  0.79492273     0.35300
C1988       C  0.37189978  0.37323095  0.78177315    -0.26700
C1989       C  0.36243930  0.34392739  0.80129524    -0.15900
C1990       C  0.37818213  0.33731723  0.83362830     0.36400
N1991       N  0.37009296  0.30615554  0.85261174    -0.90200
H1992       H  0.41416047  0.35599196  0.87195759     0.17500
H1993       H  0.35946435  0.37846813  0.75699292     0.17500
N1994       N  0.40757648  0.42569840  0.77425960    -0.89200
H1995       H  0.36052500  0.31323370  0.87705030     0.34900
H1996       H  0.39304629  0.29232472  0.85641997     0.40000
H1997       H  0.41817815  0.41599785  0.75120065     0.39600
H1998       H  0.38586271  0.44032147  0.76763978     0.34500
C1999       C  0.24039896  0.17225092  0.83305244    -0.27200
C2000       C  0.25280197  0.18399832  0.80063111    -0.15300
C2001       C  0.28384361  0.16878897  0.78765604     0.35300
C2002       C  0.30253587  0.14500488  0.80768767    -0.26700
C2003       C  0.29064908  0.13363985  0.83996593    -0.15900
C2004       C  0.25852421  0.14661037  0.85245542     0.36400
N2005       N  0.24382909  0.13480249  0.88476847    -0.90200
H2006       H  0.21691661  0.18329468  0.84362441     0.17500
H2007       H  0.32591882  0.13384015  0.79687061     0.17500
N2008       N  0.29664152  0.17691024  0.75352908    -0.89200
H2009       H  0.22079805  0.12173042  0.87890336     0.34900
H2010       H  0.25995866  0.11693575  0.89723925     0.40000
H2011       H  0.29813377  0.15380609  0.73925246     0.39600
H2012       H  0.32162338  0.18712147  0.75610486     0.34500
C2013       C  0.12549074  0.12510086  0.65300089    -0.27200
C2014       C  0.12243745  0.10176140  0.68108533    -0.15300
C2015       C  0.13942842  0.10932051  0.71281717     0.35300
C2016       C  0.15951888  0.13989684  0.71527439    -0.26700
C2017       C  0.16262234  0.16259429  0.68663653    -0.15900
C2018       C  0.14563930  0.15480447  0.65527536     0.36400
N2019       N  0.14983484  0.17630553  0.62496353    -0.90200
H2020       H  0.11352317  0.11974524  0.62803696     0.17500
H2021       H  0.17248987  0.14618081  0.73952238     0.17500
N2022       N  0.13632460  0.08617072  0.74212938    -0.89200
H2023       H  0.12541507  0.18508953  0.61731114     0.34900
H2024       H  0.15967960  0.16087223  0.60488594     0.40000
H2025       H  0.15056837  0.09558581  0.76330852     0.39600
H2026       H  0.11038020  0.08605498  0.74979493     0.34500
C2027       C  0.08239671  0.25929743  0.67933202    -0.27200
C2028       C  0.09557100  0.24926097  0.71229604    -0.15300
C2029       C  0.07566129  0.22468873  0.73159111     0.35300
C2030       C  0.04393223  0.21155719  0.71795996    -0.26700
C2031       C  0.03139817  0.22159370  0.68483540    -0.15900
C2032       C  0.05108617  0.24591726  0.66560264     0.36400
N2033       N  0.03901438  0.25727881  0.63200370    -0.90200
H2034       H  0.09671431  0.27792260  0.66372733     0.17500
H2035       H  0.02929124  0.19282205  0.73313451     0.17500
N2036       N  0.08701745  0.21222603  0.76483661    -0.89200
H2037       H  0.01585734  0.27072657  0.63581244     0.34900
H2038       H  0.05637991  0.27501451  0.62088193     0.40000
H2039       H  0.08975160  0.23351287  0.78155249     0.39600
H2040       H  0.11113887  0.20042620  0.76167092     0.34500
C2041       C  0.06592932  0.33962653  0.80641335    -0.27200
C2042       C  0.08500661  0.36755220  0.79293802    -0.15300
C2043       C  0.07898927  0.40174558  0.80447292     0.35300
C2044       C  0.05365654  0.40747753  0.82932494    -0.26700
C2045       C  0.03350620  0.37992468  0.84221195    -0.15900
C2046       C  0.04000274  0.34549161  0.83095870     0.36400
N2047       N  0.02158705  0.31609279  0.84467698    -0.90200
H2048       H  0.07183995  0.31320961  0.79855432     0.17500
H2049       H  0.04852912  0.43402834  0.83721898     0.17500
N2050       N  0.09879263  0.43050742  0.79078645    -0.89200
H2051       H  0.99562874  0.31769105  0.83741131     0.34900
H2052       H  0.02334129  0.31666526  0.87186372     0.40000
H2053       H  0.09310473  0.43267508  0.76422667     0.39600
H2054       H  0.09138383  0.45394979  0.80234821     0.34500
C2055       C  0.32522451  0.24258321  0.06214219    -0.27200
C2056       C  0.30122206  0.21710745  0.05226829    -0.15300
C2057       C  0.26717038  0.21804632  0.06486282     0.35300
C2058       C  0.25778345  0.24418726  0.08829413    -0.26700
C2059       C  0.28217746  0.26910528  0.09871075    -0.15900
C2060       C  0.31593521  0.26855603  0.08537292     0.36400
N2061       N  0.34110647  0.29364094  0.09660160    -0.90200
H2062       H  0.35123182  0.24248381  0.05157370     0.17500
H2063       H  0.23226103  0.24374356  0.09998554     0.17500
N2064       N  0.24270581  0.19182047  0.05493678    -0.89200
H2065       H  0.35038360  0.30674737  0.07458745     0.34900
H2066       H  0.36177907  0.28024416  0.10792266     0.40000
H2067       H  0.22141239  0.20420282  0.04365435     0.39600
H2068       H  0.23427400  0.17918267  0.07757616     0.34500
C2069       C  0.26558507  0.21158182  0.92815680    -0.27200
C2070       C  0.29903019  0.19729666  0.93064854    -0.15300
C2071       C  0.32277890  0.20288886  0.90330743     0.35300
C2072       C  0.31378216  0.22465010  0.87597934    -0.26700
C2073       C  0.28135648  0.24093611  0.87461057    -0.15900
C2074       C  0.25656766  0.23339680  0.90030509     0.36400
N2075       N  0.22245554  0.24766373  0.89827078    -0.90200
H2076       H  0.24686011  0.20710632  0.94870200     0.17500
H2077       H  0.33315290  0.22953591  0.85613613     0.17500
N2078       N  0.35690789  0.18841020  0.90385475    -0.89200
H2079       H  0.21796391  0.26202525  0.92092700     0.34900
H2080       H  0.20480944  0.22698669  0.89773650     0.40000
H2081       H  0.37479485  0.20889762  0.90352750     0.39600
H2082       H  0.36030242  0.17386439  0.88112546     0.34500
C2083       C  0.13619313  0.32662744  0.06148796    -0.27200
C2084       C  0.13631418  0.36272991  0.05461747    -0.15300
C2085       C  0.15113295  0.38486738  0.07999199     0.35300
C2086       C  0.16472224  0.37086063  0.11107807    -0.26700
C2087       C  0.16417916  0.33487714  0.11882978    -0.15900
C2088       C  0.14980646  0.31237095  0.09288772     0.36400
N2089       N  0.14954192  0.27512353  0.09617703    -0.90200
H2090       H  0.12548677  0.30914356  0.04212646     0.17500
H2091       H  0.17553908  0.38885621  0.12988478     0.17500
N2092       N  0.15363891  0.42172027  0.07373359    -0.89200
H2093       H  0.16433865  0.26634896  0.11701621     0.34900
H2094       H  0.12396421  0.26724216  0.10031309     0.40000
H2095       H  0.16943284  0.43361899  0.09239505     0.39600
H2096       H  0.12900089  0.43220150  0.07733738     0.34500
C2097       C  0.12486981  0.32979521  0.91350900    -0.27200
C2098       C  0.13293549  0.36415804  0.92414585    -0.15300
C2099       C  0.15511751  0.38378892  0.90241020     0.35300
C2100       C  0.16913662  0.36887291  0.87171783    -0.26700
C2101       C  0.16190692  0.33427725  0.86113068    -0.15900
C2102       C  0.13855608  0.31493631  0.88220784     0.36400
N2103       N  0.12857313  0.28042585  0.87188747    -0.90200
H2104       H  0.10773527  0.31440348  0.92974380     0.17500
H2105       H  0.18636857  0.38467471  0.85599688     0.17500
N2106       N  0.16420875  0.41878891  0.91205778    -0.89200
H2107       H  0.15049355  0.26466681  0.87352249     0.34900
H2108       H  0.11050407  0.27011569  0.88937448     0.40000
H2109       H  0.17837581  0.41751772  0.93524986     0.39600
H2110       H  0.18055013  0.42999191  0.89342424     0.34500
C2111       C  0.59069805  0.35387719  0.18500403    -0.27200
C2112       C  0.60354279  0.36464879  0.21784858    -0.15300
C2113       C  0.58695043  0.39239050  0.23501535     0.35300
C2114       C  0.55870249  0.40905164  0.21855263    -0.26700
C2115       C  0.54779977  0.39930624  0.18492382    -0.15900
C2116       C  0.56355554  0.37105015  0.16831485     0.36400
N2117       N  0.55107004  0.35902463  0.13507400    -0.90200
H2118       H  0.60229041  0.33208748  0.17153212     0.17500
H2119       H  0.54548453  0.43010526  0.23167058     0.17500
N2120       N  0.59889554  0.40385292  0.26852772    -0.89200
H2121       H  0.55657353  0.37833360  0.11664986     0.34900
H2122       H  0.56445164  0.33679716  0.12712598     0.40000
H2123       H  0.58323493  0.42392060  0.27783344     0.39600
H2124       H  0.62353242  0.41460864  0.26507267     0.34500
C2125       C  0.42034700  0.37671084  0.20378806    -0.27200
C2126       C  0.42187624  0.40393632  0.17934817    -0.15300
C2127       C  0.39092576  0.41529905  0.16338559     0.35300
C2128       C  0.36023185  0.39717412  0.16931190    -0.26700
C2129       C  0.35916404  0.36812108  0.19144381    -0.15900
C2130       C  0.38933665  0.35881886  0.21010675     0.36400
N2131       N  0.38906197  0.33071723  0.23473855    -0.90200
H2132       H  0.44358282  0.36804031  0.21695083     0.17500
H2133       H  0.33742374  0.40527816  0.15515959     0.17500
N2134       N  0.39043866  0.44475525  0.14040852    -0.89200
H2135       H  0.40713810  0.31220590  0.22672026     0.34900
H2136       H  0.39698543  0.34045064  0.25890227     0.40000
H2137       H  0.38103610  0.43664528  0.11616673     0.39600
H2138       H  0.37330075  0.46306591  0.15058936     0.34500
C2139       C  0.51259173  0.24557561  0.29838150    -0.27200
C2140       C  0.51343084  0.23179393  0.33231389    -0.15300
C2141       C  0.54507294  0.22968101  0.34999198     0.35300
C2142       C  0.57563401  0.23932308  0.33304557    -0.26700
C2143       C  0.57545333  0.25083803  0.29818312    -0.15900
C2144       C  0.54332207  0.25482557  0.28103325     0.36400
N2145       N  0.54174584  0.26646019  0.24557126    -0.90200
H2146       H  0.48821055  0.24736818  0.28454566     0.17500
H2147       H  0.59979954  0.23624313  0.34693172     0.17500
N2148       N  0.54618036  0.21735045  0.38518726    -0.89200
H2149       H  0.52621319  0.28866706  0.24459738     0.34900
H2150       H  0.52975479  0.24702115  0.23077976     0.40000
H2151       H  0.55587602  0.23735359  0.40077196     0.39600
H2152       H  0.56317890  0.19627531  0.38632567     0.34500
C2153       C  0.37318935  0.21965118  0.31309655    -0.27200
C2154       C  0.38846058  0.23432517  0.34239162    -0.15300
C2155       C  0.37798625  0.26812541  0.35259245     0.35300
C2156       C  0.35155752  0.28598360  0.33394434    -0.26700
C2157       C  0.33662338  0.27138085  0.30383131    -0.15900
C2158       C  0.34874627  0.23780426  0.29326884     0.36400
N2159       N  0.33736068  0.22196162  0.26143519    -0.90200
H2160       H  0.38226567  0.19465147  0.30379036     0.17500
H2161       H  0.34316415  0.31134406  0.34275719     0.17500
N2162       N  0.39457353  0.28458455  0.38157763    -0.89200
H2163       H  0.35903126  0.21772382  0.24573113     0.34900
H2164       H  0.32623287  0.19782289  0.26736341     0.40000
H2165       H  0.40562502  0.30785471  0.37275471     0.39600
H2166       H  0.37560218  0.29083173  0.39988624     0.34500
C2167       C  0.27586198  0.43586219  0.17776010    -0.27200
C2168       C  0.27348744  0.43081905  0.21423811    -0.15300
C2169       C  0.28670929  0.45796798  0.23576181     0.35300
C2170       C  0.30173936  0.48813225  0.22031292    -0.26700
C2171       C  0.30449637  0.49251651  0.18381439    -0.15900
C2172       C  0.29137609  0.46556287  0.16247136     0.36400
N2173       N  0.29236100  0.46884491  0.12512680    -0.90200
H2174       H  0.26573939  0.41600429  0.16051079     0.17500
H2175       H  0.31101446  0.50870968  0.23721920     0.17500
N2176       N  0.28380665  0.45726423  0.27307150    -0.89200
H2177       H  0.31807780  0.46606857  0.11732421     0.34900
H2178       H  0.27886052  0.44840511  0.11330096     0.40000
H2179       H  0.26913565  0.43627011  0.28189813     0.39600
H2180       H  0.30872471  0.45464189  0.28331210     0.34500
C2181       C  0.29305571  0.65999475  0.23521179    -0.27200
C2182       C  0.28391323  0.68790496  0.21315219    -0.15300
C2183       C  0.28816814  0.68250424  0.17660348     0.35300
C2184       C  0.30098690  0.65072420  0.16335005    -0.26700
C2185       C  0.30903193  0.62250365  0.18508959    -0.15900
C2186       C  0.30488333  0.62752761  0.22160825     0.36400
N2187       N  0.31349333  0.60000027  0.24521435    -0.90200
H2188       H  0.29025604  0.66297802  0.26312346     0.17500
H2189       H  0.30366357  0.64786761  0.13539030     0.17500
N2190       N  0.27933217  0.70933631  0.15223457    -0.89200
H2191       H  0.33270146  0.60914561  0.26209972     0.34900
H2192       H  0.29153256  0.59422086  0.26004510     0.40000
H2193       H  0.26047367  0.69948561  0.13534397     0.39600
H2194       H  0.30132310  0.71522376  0.13748249     0.34500
C2195       C  0.17745028  0.46417107  0.30171895    -0.27200
C2196       C  0.15163648  0.43920543  0.29640244    -0.15300
C2197       C  0.12031553  0.44091730  0.31506138     0.35300
C2198       C  0.11553331  0.46714045  0.33919415    -0.26700
C2199       C  0.14055162  0.49316695  0.34373475    -0.15900
C2200       C  0.17226378  0.49134618  0.32533972     0.36400
N2201       N  0.19870040  0.51730251  0.33022006    -0.90200
H2202       H  0.20178858  0.46216153  0.28787499     0.17500
H2203       H  0.09083461  0.46828413  0.35246244     0.17500
N2204       N  0.09270569  0.41668167  0.30870452    -0.89200
H2205       H  0.20728057  0.51541868  0.35598954     0.34900
H2206       H  0.22005374  0.51230106  0.31430324     0.40000
H2207       H  0.08677665  0.40413526  0.33216576     0.39600
H2208       H  0.07091465  0.43066367  0.30075037     0.34500
C2209       C  0.16879805  0.61402244  0.31510370    -0.27200
C2210       C  0.13813652  0.61666145  0.33496710    -0.15300
C2211       C  0.11691387  0.64606653  0.33092927     0.35300
C2212       C  0.12615803  0.67118465  0.30657528    -0.26700
C2213       C  0.15719776  0.66912764  0.28732047    -0.15900
C2214       C  0.17841762  0.63973362  0.29130867     0.36400
N2215       N  0.20969527  0.63514075  0.27190865    -0.90200
H2216       H  0.18538957  0.59148902  0.31753890     0.17500
H2217       H  0.10902174  0.69323310  0.30350816     0.17500
N2218       N  0.08576510  0.65030852  0.35095390    -0.89200
H2219       H  0.22646450  0.65574422  0.27756676     0.34900
H2220       H  0.20374162  0.63542832  0.24531825     0.40000
H2221       H  0.07185442  0.67211364  0.34275056     0.39600
H2222       H  0.09312767  0.65497263  0.37676043     0.34500
C2223       C  0.19159997  0.39454646  0.41923884    -0.27200
C2224       C  0.15566942  0.39175291  0.42582653    -0.15300
C2225       C  0.13518128  0.37549192  0.39992853     0.35300
C2226       C  0.15090818  0.36107883  0.36979932    -0.26700
C2227       C  0.18688819  0.36336813  0.36314643    -0.15900
C2228       C  0.20713528  0.38160324  0.38801508     0.36400
N2229       N  0.24328891  0.38724680  0.38161923    -0.90200
H2230       H  0.20770472  0.40729730  0.43851118     0.17500
H2231       H  0.13452540  0.34791151  0.35105513     0.17500
N2232       N  0.09845868  0.37221792  0.40484179    -0.89200
H2233       H  0.25525912  0.36299752  0.38093755     0.34900
H2234       H  0.25454957  0.40097845  0.40223375     0.40000
H2235       H  0.08737872  0.35758348  0.38475597     0.39600
H2236       H  0.08788397  0.39713882  0.40272024     0.34500
C2237       C  0.15245472  0.36150873  0.61346770    -0.27200
C2238       C  0.18862733  0.36111425  0.61898717    -0.15300
C2239       C  0.20958020  0.37565519  0.59226467     0.35300
C2240       C  0.19420369  0.38909255  0.56129879    -0.26700
C2241       C  0.15789530  0.38984587  0.55637158    -0.15900
C2242       C  0.13712753  0.37606510  0.58360029     0.36400
N2243       N  0.10013332  0.37538708  0.58153595    -0.90200
H2244       H  0.13530951  0.35090965  0.63317477     0.17500
H2245       H  0.21085092  0.39938408  0.54102646     0.17500
N2246       N  0.24643035  0.37661998  0.59542117    -0.89200
H2247       H  0.09098534  0.40093821  0.58111638     0.34900
H2248       H  0.09277691  0.36265672  0.55863394     0.40000
H2249       H  0.25275912  0.39126707  0.61746195     0.39600
H2250       H  0.25521372  0.35120320  0.59917584     0.34500
C2251       C  0.29775016  0.20904216  0.37442971    -0.27200
C2252       C  0.28172445  0.24184975  0.37366790    -0.15300
C2253       C  0.29088828  0.26691652  0.39851515     0.35300
C2254       C  0.31400833  0.25801066  0.42504017    -0.26700
C2255       C  0.32812642  0.22434078  0.42714235    -0.15900
C2256       C  0.32109444  0.20006176  0.40047565     0.36400
N2257       N  0.33567728  0.16564471  0.40090375    -0.90200
H2258       H  0.29152106  0.18967385  0.35489957     0.17500
H2259       H  0.31972824  0.27710512  0.44500998     0.17500
N2260       N  0.27712011  0.30135573  0.39686882    -0.89200
H2261       H  0.36226192  0.16824006  0.39690997     0.34900
H2262       H  0.32634163  0.15068425  0.38017060     0.40000
H2263       H  0.29792771  0.31872610  0.39506065     0.39600
H2264       H  0.26416699  0.30627967  0.42024762     0.34500
C2265       C  0.28988649  0.19741073  0.56265289    -0.27200
C2266       C  0.31099919  0.22371540  0.54894070    -0.15300
C2267       C  0.30533157  0.25879915  0.55811565     0.35300
C2268       C  0.27975790  0.26658651  0.58243949    -0.26700
C2269       C  0.25955148  0.23997773  0.59689727    -0.15900
C2270       C  0.26420635  0.20516241  0.58637962     0.36400
N2271       N  0.24325096  0.17718310  0.59949554    -0.90200
H2272       H  0.29297505  0.17058928  0.55447821     0.17500
H2273       H  0.27695699  0.29310249  0.59149350     0.17500
N2274       N  0.32592882  0.28663130  0.54428048    -0.89200
H2275       H  0.21735453  0.18345101  0.59509815     0.34900
H2276       H  0.24722870  0.17435978  0.62626718     0.40000
H2277       H  0.32207464  0.28802242  0.51737029     0.39600
H2278       H  0.35195257  0.28110005  0.54910920     0.34500
loop_ 
_geom_bond_atom_site_label_1 
_geom_bond_atom_site_label_2 
_geom_bond_distance 
_geom_bond_site_symmetry_2 
_ccdc_geom_bond_type 
C1            N2   1.355       .  A
C1            N6   1.347       .  A
C1         C2266   1.451       .  S
N2            C3   1.350       .  A
C3            N4   1.352       .  A
C3          C863   1.448       .  S
N4            C5   1.354       .  A
C5            N6   1.350       .  A
C5         C2255   1.468       .  S
C7            N8   1.370       .  A
C7           N12   1.369       .  A
C7         C2241   1.521       .  S
N8            C9   1.367       .  A
C9           N10   1.374       .  A
C9          C761   1.521       .  S
N10          C11   1.378       .  A
C11          N12   1.371       .  A
C11        C2224   1.527       .  S
C13          N14   1.345       .  A
C13          N18   1.354       .  A
C13        C2199   1.463       .  S
N14          C15   1.347       .  A
C15          N16   1.359       .  A
C15        C2210   1.473       .  S
N16          C17   1.353       .  A
C17          N18   1.350       .  A
C17         C784   1.453       .  S
C19          N20   1.367       .  A
C19          N24   1.371       .  A
C19        C2171   1.518       .  S
N20          C21   1.368       .  A
C21          N22   1.378       .  A
C21        C2185   1.525       .  S
N22          C23   1.375       .  A
C23          N24   1.368       .  A
C23         C818   1.523       .  S
C25          N26   1.357       .  A
C25          N30   1.352       .  A
C25        C2140   1.474       .  S
N26          C27   1.357       .  A
C27          N28   1.375       .  A
C27         C886   1.500       .  S
N28          C29   1.378       .  A
C29          N30   1.355       .  A
C29        C2154   1.489       .  S
C31          N32   1.348       .  A
C31          N36   1.355       .  A
C31        C2126   1.480       .  S
N32          C33   1.348       .  A
C33          N34   1.363       .  A
C33         C806   1.470       .  S
N34          C35   1.370       .  A
C35          N36   1.358       .  A
C35        C2115   1.472       .  S
C37          N38   1.370   1_554  A
C37          N42   1.365       .  A
C37        C2084   1.514       .  S
N38          C39   1.372       .  A
C39          N40   1.379       .  A
C39        C2098   1.525       .  S
N40          C41   1.376       .  A
C41          N42   1.362   1_556  A
C41         C528   1.517       .  S
C43          N44   1.355       .  A
C43          N48   1.352       .  A
C43        C2070   1.471       .  S
N44          C45   1.350       .  A
C45          N46   1.350   1_556  A
C45         C561   1.449   1_556  S
N46          C47   1.354       .  A
C47          N48   1.350   1_554  A
C47        C2056   1.448       .  S
O49          C76   1.267       .  A
O49         Mn75   2.081       .  S
C50        C2269   1.442       .  S
C50          O83   1.265       .  A
C50          O80   1.257       .  A
O51         Mn58   2.184       .  S
O51         Mn69   2.106       .  S
O51         Mn73   2.189       .  S
O51         Mn75   2.113       .  S
O52          C62   1.270       .  A
O52         Mn86   2.073       .  S
O53          C76   1.259       .  A
O53         Mn69   2.027       .  S
O54          C81   1.267       .  A
O54         Mn73   2.194       .  S
O55         Mn86   1.946       .  S
O55         Mn75   1.958       .  S
O55          C71   1.220       .  S
C56        C2000   1.506       .  S
C56          O59   1.270       .  A
C56          O82   1.234       .  A
O57         Mn77   2.101       .  S
O57         Mn58   2.178       .  S
O57         Mn91   2.088       .  S
O57         Mn73   2.182       .  S
Mn58         O87   2.194       .  S
Mn58         O63   2.211       .  S
Mn58         O90   2.195       .  S
Mn58         O64   2.193       .  S
O59         Mn73   2.192       .  S
O60          C62   1.266       .  A
O60         Mn67   2.072       .  S
C61        C1972   1.529       .  S
C61          O87   1.269       .  A
C61          O74   1.217       .  S
C62        C2017   1.463       .  S
O63          C88   1.275       .  A
O64         Mn67   2.102       .  S
O64         Mn86   2.119       .  S
O64         Mn73   2.184       .  S
O65         Mn69   2.005       .  S
O65         Mn91   2.004       .  S
O65          C88   1.229       .  A
C66        C2073   1.467       .  S
C66          O92   1.266       .  A
C66          O68   1.270       .  A
Mn67         O80   2.032       .  S
Mn67         O82   1.997       .  S
Mn67         O74   1.970       .  S
O68         Mn91   2.084       .  S
Mn69         O85   2.092       .  S
Mn69         O79   1.965       .  S
O70          C72   1.271       .  A
O70         Mn75   2.085       .  S
C71        C2028   1.529       .  S
C71          O89   1.268       .  A
C72        C1961   1.477       .  S
C72          O85   1.273       .  A
Mn73         O89   2.183       .  S
O74         Mn77   1.968       .  S
Mn75         O93   1.946       .  S
C76        C2042   1.446       .  S
Mn77         O84   2.076       .  S
Mn77         O92   2.058       .  S
Mn77         O82   1.990       .  S
C78        C1989   1.450       .  S
C78          O84   1.267       .  A
C78          O94   1.266       .  A
O79         Mn91   1.975       .  S
O79          C81   1.216       .  S
C81        C2101   1.534       .  S
O83         Mn86   2.079       .  S
Mn86         O93   1.948       .  S
C88        C1944   1.511       .  S
O90          C95   1.272       .  A
Mn91         O94   2.085       .  S
O93          C95   1.218       .  S
C95        C2238   1.524       .  S
C96          N97   1.358       .  A
C96         N101   1.343       .  A
C96        C1930   1.465   1_545  S
N97          C98   1.355       .  A
C98          N99   1.356       .  A
C98         C483   1.456       .  S
N99         C100   1.356       .  A
C100        N101   1.343       .  A
C100       C1916   1.451       .  S
C102        N103   1.363       .  A
C102        N107   1.366       .  A
C102       C1905   1.499   1_545  S
N103        C104   1.365       .  A
C104        N105   1.376       .  A
C104       C1891   1.523       .  S
N105        C106   1.372       .  A
C106        N107   1.365       .  A
C106        C573   1.510       .  S
O108        C135   1.268       .  A
O108       Mn134   2.077       .  S
C109       C2213   1.472       .  S
C109        O142   1.271       .  A
C109        O139   1.259       .  A
O110       Mn117   2.179       .  S
O110       Mn128   2.126       .  S
O110       Mn132   2.197       .  S
O110       Mn134   2.099       .  S
O111        C121   1.262       .  A
O111       Mn145   2.034       .  S
O112        C135   1.269       .  A
O112       Mn128   2.075       .  S
O113        C140   1.264       .  A
O113       Mn132   2.163       .  S
O114       Mn145   1.932       .  S
O114       Mn134   1.944       .  S
O114        C130   1.213       .  S
C115       C1832   1.534       .  S
C115        O118   1.271       .  A
C115        O141   1.210       .  S
O116       Mn136   2.096       .  S
O116       Mn117   2.189       .  S
O116       Mn150   2.098       .  S
O116       Mn132   2.189       .  S
Mn117       O146   2.192       .  S
Mn117       O122   2.201       .  S
Mn117       O149   2.213       .  S
Mn117       O123   2.194       .  S
O118       Mn132   2.221       .  S
O119        C121   1.273       .  A
O119       Mn126   2.096       .  S
C120       C1807   1.500       .  S
C120        O146   1.269       .  A
C120        O133   1.232       .  A
C121       C1846   1.469       .  S
O122        C147   1.275       .  A
O123       Mn126   2.091       .  S
O123       Mn145   2.098       .  S
O123       Mn132   2.167       .  S
O124       Mn128   1.950       .  S
O124       Mn150   1.956       .  S
O124        C147   1.218       .  S
C125       C1933   1.467       .  S
C125        O151   1.260       .  A
C125        O127   1.268       .  A
Mn126       O139   2.025       .  S
Mn126       O133   1.998       .  S
Mn126       O141   1.950       .  S
O127       Mn150   2.085       .  S
Mn128       O144   2.074       .  S
Mn128       O138   1.937       .  S
O129        C131   1.265       .  A
O129       Mn134   2.062       .  S
C130       C1860   1.512       .  S
C130        O148   1.269       .  A
C131       C1793   1.448       .  S
C131        O144   1.265       .  A
Mn132       O148   2.186       .  S
O133       Mn136   1.996       .  S
Mn134       O152   1.947       .  S
C135       C1874   1.482       .  S
Mn136       O143   2.082       .  S
Mn136       O151   2.040       .  S
Mn136       O141   1.967       .  S
C137       C1821   1.476       .  S
C137        O143   1.270       .  A
C137        O153   1.271       .  A
O138       Mn150   1.951       .  S
O138        C140   1.218       .  S
C140       C1902   1.513       .  S
O142       Mn145   2.093       .  S
Mn145       O152   1.938       .  S
C147       C1776   1.528       .  S
O149        C154   1.270       .  A
Mn150       O153   2.086       .  S
O152        C154   1.210       .  S
C154       C2182   1.531       .  S
C155        N156   1.360       .  A
C155        N160   1.354       .  A
C155       C1762   1.499       .  S
N156        C157   1.365   1_655  A
C157        N158   1.376       .  A
C157       C1748   1.501       .  S
N158        C159   1.366   1_455  A
C159        N160   1.353       .  A
C159        C506   1.490       .  S
C161        N162   1.354       .  A
C161        N166   1.352       .  A
C161       C1720   1.472   1_655  S
N162        C163   1.357       .  A
C163        N164   1.368       .  A
C163       C1737   1.471       .  S
N164        C165   1.365       .  A
C165        N166   1.352       .  A
C165        C516   1.474       .  S
O167        C194   1.273       .  A
O167       Mn193   2.094       .  S
C168       C2143   1.487       .  S
C168        O201   1.271       .  A
C168        O198   1.273       .  A
O169       Mn176   2.195       .  S
O169       Mn187   2.099       .  S
O169       Mn191   2.172       .  S
O169       Mn193   2.104       .  S
O170        C180   1.272       .  A
O170       Mn204   2.092       .  S
O171        C194   1.273       .  A
O171       Mn187   2.100       .  S
O172        C199   1.258       .  A
O172       Mn191   2.143       .  S
O173       Mn204   1.954       .  S
O173       Mn193   1.943       .  S
O173        C189   1.211       .  S
C174       C1706   1.486       .  S
C174        O177   1.254       .  A
C174        O200   1.211       .  S
O175       Mn195   2.104       .  S
O175       Mn176   2.176       .  S
O175       Mn209   2.098       .  S
O175       Mn191   2.184       .  S
Mn176       O205   2.159       .  S
Mn176       O181   2.143       .  S
Mn176       O208   2.139       .  S
Mn176       O182   2.181       .  S
O177       Mn191   2.132       .  S
O178        C180   1.263       .  A
O178       Mn185   2.055       .  S
C179       C2112   1.493       .  S
C179        O205   1.262       .  A
C179        O192   1.235       .  A
C180       C1664   1.477       .  S
O181        C206   1.259       .  A
O182       Mn185   2.102       .  S
O182       Mn204   2.104       .  S
O182       Mn191   2.187       .  S
O183       Mn187   2.022       .  S
O183       Mn209   2.019       .  S
O183        C206   1.237       .  A
C184       C1692   1.478       .  S
C184        O210   1.272       .  A
C184        O186   1.260       .  A
Mn185       O198   2.096       .  S
Mn185       O192   2.004       .  S
Mn185       O200   1.956       .  S
O186       Mn209   2.044       .  S
Mn187       O203   2.081       .  S
Mn187       O197   1.967       .  S
O188        C190   1.269       .  A
O188       Mn193   2.090       .  S
C189       C1678   1.483       .  S
C189        O207   1.257       .  A
C190       C1639   1.491       .  S
C190        O203   1.271       .  A
Mn191       O207   2.138       .  S
O192       Mn195   2.011       .  S
Mn193       O211   1.935       .  S
C194       C1765   1.496       .  S
Mn195       O202   2.090       .  S
Mn195       O210   2.103       .  S
Mn195       O200   1.966       .  S
C196       C1608   1.484       .  S
C196        O202   1.271       .  A
C196        O212   1.274       .  A
O197       Mn209   1.958       .  S
O197        C199   1.215       .  S
C199       C1734   1.498       .  S
O201       Mn204   2.082       .  S
Mn204       O211   1.932       .  S
C206       C1625   1.493       .  S
O208        C213   1.255       .  A
Mn209       O212   2.100       .  S
O211        C213   1.210       .  S
C213       C1650   1.484       .  S
C214        N215   1.352       .  A
C214        N219   1.354   1_556  A
C214       C1594   1.476       .  S
N215        C216   1.352   1_556  A
C216        N217   1.361       .  A
C216        C562   1.468       .  S
N217        C218   1.366       .  A
C218        N219   1.356       .  A
C218       C1709   1.466       .  S
C220        N221   1.355       .  A
C220        N225   1.350   1_554  A
C220       C1695   1.484       .  S
N221        C222   1.353   1_554  A
C222        N223   1.370       .  A
C222        C539   1.491       .  S
N223        C224   1.377       .  A
C224        N225   1.355       .  A
C224       C1580   1.481       .  S
C226        N227   1.378       .  A
C226        N231   1.371       .  A
C226       C1566   1.527       .  S
N227        C228   1.377       .  A
C228        N229   1.368       .  A
C228        C507   1.524       .  S
N229        C230   1.370       .  A
C230        N231   1.370       .  A
C230       C2031   1.515   1_655  S
C232        N233   1.356       .  A
C232        N237   1.351   1_455  A
C232       C2045   1.461       .  S
N233        C234   1.350   1_455  A
C234        N235   1.351       .  A
C234        C551   1.456       .  S
N235        C236   1.357       .  A
C236        N237   1.351       .  A
C236       C1552   1.467       .  S
O238        C265   1.268       .  A
O238       Mn264   2.060       .  S
C239       C1471   1.438       .  S
C239        O272   1.259       .  A
C239        O269   1.267       .  A
O240       Mn247   2.178       .  S
O240       Mn258   2.093       .  S
O240       Mn262   2.166       .  S
O240       Mn264   2.096       .  S
O241        C251   1.266       .  A
O241       Mn275   2.069       .  S
O242        C265   1.272       .  A
O242       Mn258   2.088       .  S
O243        C270   1.273       .  A
O243       Mn262   2.211       .  S
O244       Mn275   1.971       .  S
O244       Mn264   1.974       .  S
O244        C260   1.226       .  A
C245       C1538   1.525       .  S
C245        O248   1.263       .  A
C245        O271   1.218       .  S
O246       Mn266   2.088       .  S
O246       Mn247   2.166       .  S
O246       Mn280   2.098       .  S
O246       Mn262   2.177       .  S
Mn247       O276   2.184       .  S
Mn247       O252   2.194       .  S
Mn247       O279   2.184       .  S
Mn247       O253   2.187       .  S
O248       Mn262   2.165       .  S
O249        C251   1.272       .  A
O249       Mn256   2.091       .  S
C250       C1482   1.523       .  S
C250        O276   1.272       .  A
C250        O263   1.218       .  S
C251       C1597   1.483       .  S
O252        C277   1.268       .  A
O253       Mn256   2.118       .  S
O253       Mn275   2.100       .  S
O253       Mn262   2.205       .  S
O254       Mn258   1.927       .  S
O254       Mn280   1.937       .  S
O254        C277   1.209       .  S
C255       C1524   1.462       .  S
C255        O281   1.267       .  A
C255        O257   1.263       .  A
Mn256       O269   2.081       .  S
Mn256       O271   1.938       .  S
Mn256       O263   1.963       .  S
O257       Mn280   2.056       .  S
Mn258       O274   2.040       .  S
Mn258       O268   1.957       .  S
O259        C261   1.265       .  A
O259       Mn264   2.065       .  S
C260       C1583   1.502       .  S
C260        O278   1.268       .  A
C261       C1440   1.435       .  S
C261        O274   1.259       .  A
Mn262       O278   2.200       .  S
O263       Mn266   1.952       .  S
Mn264       O282   1.978       .  S
C265       C1555   1.459       .  S
Mn266       O273   2.076       .  S
Mn266       O281   2.068       .  S
Mn266       O271   1.954       .  S
C267       C1496   1.485       .  S
C267        O273   1.270       .  A
C267        O283   1.273       .  A
O268       Mn280   1.969       .  S
O268        C270   1.216       .  S
C270       C1569   1.541       .  S
O272       Mn275   2.020       .  S
Mn275       O282   1.979       .  S
C277       C1510   1.508       .  S
O279        C284   1.266       .  A
Mn280       O283   2.097       .  S
O282        C284   1.221       .  S
C284       C1454   1.530       .  S
C285        N286   1.352       .  A
C285        N290   1.354   1_556  A
C285       C1426   1.481       .  S
N286        C287   1.352   1_556  A
C287        N288   1.376       .  A
C287        C527   1.501       .  S
N288        C289   1.382       .  A
C289        N290   1.358       .  A
C289       C1863   1.497       .  S
C291        N292   1.354   1_554  A
C291        N296   1.348       .  A
C291       C1877   1.482       .  S
N292        C293   1.358       .  A
C293        N294   1.372       .  A
C293       C1412   1.475       .  S
N294        C295   1.367       .  A
C295        N296   1.350   1_556  A
C295        C596   1.475       .  S
C297        N298   1.358       .  A
C297        N302   1.372       .  A
C297       C1398   1.473   1_545  S
N298        C299   1.354       .  A
C299        N300   1.350       .  A
C299       C2014   1.475       .  S
N300        C301   1.344       .  A
C301        N302   1.363       .  A
C301        C482   1.476       .  S
C303        N304   1.355       .  A
C303        N308   1.348       .  A
C303       C1384   1.489       .  S
N304        C305   1.360       .  A
C305        N306   1.377       .  A
C305       C2003   1.484       .  S
N306        C307   1.370       .  A
C307        N308   1.349       .  A
C307        C584   1.487       .  S
O309        C336   1.271       .  A
O309       Mn335   2.101       .  S
C310       C1429   1.470       .  S
C310        O343   1.270       .  A
C310        O340   1.263       .  A
O311       Mn318   2.180       .  S
O311       Mn329   2.103       .  S
O311       Mn333   2.187       .  S
O311       Mn335   2.110       .  S
O312        C322   1.271       .  A
O312       Mn346   2.090       .  S
O313        C336   1.269       .  A
O313       Mn329   2.077       .  S
O314        C341   1.258       .  A
O314       Mn333   2.138       .  S
O315       Mn346   2.013       .  S
O315       Mn335   2.006       .  S
O315        C331   1.236       .  A
C316       C1272   1.483       .  S
C316        O319   1.257       .  A
C316        O342   1.231       .  A
O317       Mn337   2.103       .  S
O317       Mn318   2.183       .  S
O317       Mn351   2.101       .  S
O317       Mn333   2.194       .  S
Mn318       O347   2.126       .  S
Mn318       O323   2.155       .  S
Mn318       O350   2.140       .  S
Mn318       O324   2.190       .  S
O319       Mn333   2.153       .  S
O320        C322   1.269       .  A
O320       Mn327   2.084       .  S
C321       C1356   1.490       .  S
C321        O347   1.256       .  A
C321        O334   1.215       .  S
C322       C1289   1.480       .  S
O323        C348   1.259       .  A
O324       Mn327   2.104       .  S
O324       Mn346   2.100       .  S
O324       Mn333   2.189       .  S
O325       Mn329   2.034       .  S
O325       Mn351   2.026       .  S
O325        C348   1.232       .  A
C326       C1345   1.484       .  S
C326        O352   1.270       .  A
C326        O328   1.269       .  A
Mn327       O340   2.057       .  S
Mn327       O342   1.991       .  S
Mn327       O334   1.950       .  S
O328       Mn351   2.085       .  S
Mn329       O345   2.093       .  S
Mn329       O339   2.030       .  S
O330        C332   1.266       .  A
O330       Mn335   2.060       .  S
C331       C1303   1.488       .  S
C331        O349   1.259       .  A
C332       C1387   1.478       .  S
C332        O345   1.270       .  A
Mn333       O349   2.149       .  S
O334       Mn337   1.967       .  S
Mn335       O353   1.958       .  S
C336       C1314   1.482       .  S
Mn337       O344   2.072       .  S
Mn337       O352   2.085       .  S
Mn337       O342   1.990       .  S
C338       C1370   1.481       .  S
C338        O344   1.266       .  A
C338        O354   1.272       .  A
O339       Mn351   2.036       .  S
O339        C341   1.237       .  A
C341       C1328   1.486       .  S
O343       Mn346   2.097       .  S
Mn346       O353   1.964       .  S
C348       C1401   1.492       .  S
O350        C355   1.257       .  A
Mn351       O354   2.089       .  S
O353        C355   1.213       .  S
C355       C1415   1.489       .  S
C356        N357   1.344       .  A
C356        N361   1.353       .  A
C356       C1258   1.439       .  S
N357        C358   1.346   1_655  A
C358        N359   1.358       .  A
C358       C1849   1.474       .  S
N359        C360   1.355   1_455  A
C360        N361   1.354       .  A
C360        C517   1.454       .  S
C362        N363   1.368       .  A
C362        N367   1.370       .  A
C362       C1247   1.516       .  S
N363        C364   1.365       .  A
C364        N365   1.375   1_655  A
C364        C471   1.520       .  S
N365        C366   1.379       .  A
C366        N367   1.370   1_455  A
C366       C1835   1.523       .  S
C368        N369   1.352       .  A
C368        N373   1.346       .  A
C368       C1233   1.454       .  S
N369        C370   1.356       .  A
C370        N371   1.367       .  A
C370        C494   1.473       .  S
N371        C372   1.367       .  A
C372        N373   1.350       .  A
C372       C1681   1.468       .  S
C374        N375   1.374       .  A
C374        N379   1.354       .  A
C374       C1219   1.484   1_545  S
N375        C376   1.368       .  A
C376        N377   1.353       .  A
C376        C572   1.483       .  S
N377        C378   1.354       .  A
C378        N379   1.350       .  A
C378       C1667   1.481       .  S
O380        C407   1.263       .  A
O380       Mn406   2.043       .  S
C381       C1261   1.444       .  S
C381        O414   1.264       .  A
C381        O411   1.268       .  A
O382       Mn389   2.185       .  S
O382       Mn400   2.092       .  S
O382       Mn404   2.178       .  S
O382       Mn406   2.098       .  S
O383        C393   1.270       .  A
O383       Mn417   2.082       .  S
O384        C407   1.267       .  A
O384       Mn400   2.067       .  S
O385        C412   1.267       .  A
O385       Mn404   2.192       .  S
O386       Mn417   1.936       .  S
O386       Mn406   1.924       .  S
O386        C402   1.207       .  S
C387       C1177   1.519       .  S
C387        O390   1.266       .  A
C387        O413   1.220       .  S
O388       Mn408   2.105       .  S
O388       Mn389   2.187       .  S
O388       Mn422   2.106       .  S
O388       Mn404   2.180       .  S
Mn389       O418   2.188       .  S
Mn389       O394   2.187       .  S
Mn389       O421   2.209       .  S
Mn389       O395   2.177       .  S
O390       Mn404   2.169       .  S
O391        C393   1.266       .  A
O391       Mn398   2.067       .  S
C392       C1244   1.525       .  S
C392        O418   1.273       .  A
C392        O405   1.221       .  S
C393       C1104   1.479       .  S
O394        C419   1.268       .  A
O395       Mn398   2.116       .  S
O395       Mn417   2.097       .  S
O395       Mn404   2.186       .  S
O396       Mn400   1.995       .  S
O396       Mn422   1.995       .  S
O396        C419   1.231       .  A
C397       C1160   1.474       .  S
C397        O423   1.271       .  A
C397        O399   1.260       .  A
Mn398       O411   2.084       .  S
Mn398       O413   1.949       .  S
Mn398       O405   1.956       .  S
O399       Mn422   2.035       .  S
Mn400       O416   2.060       .  S
Mn400       O410   1.966       .  S
O401        C403   1.266       .  A
O401       Mn406   2.081       .  S
C402       C1118   1.506       .  S
C402        O420   1.265       .  A
C403       C1191   1.446       .  S
C403        O416   1.262       .  A
Mn404       O420   2.186       .  S
O405       Mn408   1.961       .  S
Mn406       O424   1.928       .  S
C407       C1132   1.462       .  S
Mn408       O415   2.082       .  S
Mn408       O423   2.099       .  S
Mn408       O413   1.956       .  S
C409       C1230   1.454       .  S
C409        O415   1.269       .  A
C409        O425   1.267       .  A
O410       Mn422   1.964       .  S
O410        C412   1.216       .  S
C412       C1149   1.530       .  S
O414       Mn417   2.054       .  S
Mn417       O424   1.941       .  S
C419       C1216   1.493       .  S
O421        C426   1.271       .  A
Mn422       O425   2.066       .  S
O424        C426   1.208       .  S
C426       C1205   1.523       .  S
C427        N428   1.344       .  A
C427        N432   1.358       .  A
C427       C1188   1.450       .  S
N428        C429   1.343   1_554  A
C429        N430   1.353       .  A
C429       C1090   1.439       .  S
N430        C431   1.355       .  A
C431        N432   1.358   1_556  A
C431        C597   1.453       .  S
C433        N434   1.366   1_556  A
C433        N438   1.368       .  A
C433       C1076   1.519       .  S
N434        C435   1.369       .  A
C435        N436   1.380       .  A
C435       C1202   1.529       .  S
N436        C437   1.375       .  A
C437        N438   1.366   1_554  A
C437        C538   1.520       .  S
C439        N440   1.349       .  A
C439        N444   1.352       .  A
C439       C1527   1.467       .  S
N440        C441   1.347       .  A
C441        N442   1.357       .  A
C441       C1062   1.451   1_545  S
N442        C443   1.353       .  A
C443        N444   1.352       .  A
C443        C493   1.449       .  S
C445        N446   1.361       .  A
C445        N450   1.372       .  A
C445       C1541   1.502       .  S
N446        C447   1.362       .  A
C447        N448   1.377       .  A
C447       C1048   1.516   1_545  S
N448        C449   1.374       .  A
C449        N450   1.371       .  A
C449        C583   1.522       .  S
C451        N452   1.353       .  A
C451        N456   1.351       .  A
C451       C1373   1.470   1_655  S
N452        C453   1.358       .  A
C453        N454   1.377       .  A
C453       C1034   1.487       .  S
N454        C455   1.370       .  A
C455        N456   1.351       .  A
C455        C472   1.486       .  S
C457        N458   1.354       .  A
C457        N462   1.352       .  A
C457       C1020   1.481       .  S
N458        C459   1.351       .  A
C459        N460   1.363   1_655  A
C459        C552   1.471       .  S
N460        C461   1.366       .  A
C461        N462   1.356   1_455  A
C461       C1359   1.470       .  S
N463        N464   1.329       .  A
N463        N469   1.316       .  A
N463       Mn492   2.258   1_565  S
N464        C471   1.362       .  A
N465        N467   1.314       .  A
N465        N466   1.319       .  A
N465       Mn481   2.212   1_665  S
N466        C472   1.354       .  A
N467        N468   1.330       .  A
N467       Mn492   2.222   1_565  S
N468        C472   1.356       .  A
N469        N470   1.334   1_655  A
N469       Mn481   2.256   1_665  S
N470        C471   1.363   1_455  A
N473        N479   1.320       .  A
N473        N474   1.317       .  A
N473       Mn503   2.220       .  S
N474        C482   1.353       .  A
N475        N476   1.320       .  A
N475        N477   1.319       .  A
N475       Mn481   2.195       .  S
N476        C483   1.350       .  A
N477        N478   1.318       .  A
N477       Mn503   2.200       .  S
N478        C483   1.347       .  A
N479        N480   1.329       .  A
N479       Mn481   2.224       .  S
N480        C482   1.354       .  A
Mn481      Cl505   2.562   1_455  S
N484        N485   1.320       .  A
N484        N490   1.318       .  A
N484       Mn492   2.205       .  S
N485        C493   1.350       .  A
N486        N488   1.319       .  A
N486        N487   1.326       .  A
N486       Mn504   2.221       .  S
N487        C494   1.354       .  A
N488        N489   1.318       .  A
N488       Mn492   2.209       .  S
N489        C494   1.352       .  A
N490        N491   1.315       .  A
N490       Mn504   2.169       .  S
N491        C493   1.345       .  A
Mn492      Cl505   2.549       .  S
N495        N496   1.333       .  A
N495        N501   1.314   1_455  A
N495       Mn503   2.247       .  S
N496        C506   1.362   1_455  A
N497        N498   1.332       .  A
N497        N499   1.315       .  A
N497       Mn504   2.252       .  S
N498        C507   1.361       .  A
N499        N500   1.332   1_655  A
N499       Mn503   2.266   1_655  S
N500        C507   1.365   1_455  A
N501        N502   1.317       .  A
N501       Mn504   2.194       .  S
N502        C506   1.350       .  A
Mn503      Cl505   2.550   1_455  S
Mn504      Cl505   2.560       .  S
N508        N509   1.325       .  A
N508        N514   1.320       .  A
N508       Mn537   2.219       .  S
N509        C516   1.352       .  A
N510        N512   1.320       .  A
N510        N511   1.320       .  A
N510       Mn526   2.209   1_655  S
N511        C517   1.350       .  A
N512        N513   1.317       .  A
N512       Mn537   2.184       .  S
N513        C517   1.346       .  A
N514        N515   1.320       .  A
N514       Mn526   2.221   1_655  S
N515        C516   1.354       .  A
N518        N524   1.315   1_556  A
N518        N519   1.319       .  A
N518       Mn548   2.219       .  S
N519        C527   1.355   1_556  A
N520        N521   1.331       .  A
N520        N522   1.315   1_554  A
N520       Mn526   2.268       .  S
N521        C528   1.365   1_554  A
N522        N523   1.332       .  A
N522       Mn548   2.235       .  S
N523        C528   1.359       .  A
N524        N525   1.336       .  A
N524       Mn526   2.248       .  S
N525        C527   1.362       .  A
Mn526      Cl550   2.554   1_454  S
N529        N530   1.334       .  A
N529        N535   1.316   1_554  A
N529       Mn537   2.257       .  S
N530        C538   1.363       .  A
N531        N533   1.313   1_556  A
N531        N532   1.333       .  A
N531       Mn549   2.234       .  S
N532        C539   1.359       .  A
N533        N534   1.319       .  A
N533       Mn537   2.209       .  S
N534        C539   1.354   1_554  A
N535        N536   1.329       .  A
N535       Mn549   2.255       .  S
N536        C538   1.362   1_556  A
Mn537      Cl550   2.555   1_554  S
N540        N541   1.318   1_655  A
N540        N546   1.319       .  A
N540       Mn548   2.189   1_655  S
N541        C551   1.347   1_455  A
N542        N543   1.319       .  A
N542        N544   1.319       .  A
N542       Mn549   2.215       .  S
N543        C552   1.353       .  A
N544        N545   1.325   1_655  A
N544       Mn548   2.210   1_655  S
N545        C552   1.352   1_455  A
N546        N547   1.320       .  A
N546       Mn549   2.201       .  S
N547        C551   1.348       .  A
Mn548      Cl550   2.555   1_455  S
Mn549      Cl550   2.554       .  S
N553        N554   1.318       .  A
N553        N559   1.318   1_556  A
N553       Mn582   2.200       .  S
N554        C561   1.348   1_556  A
N555        N557   1.319   1_554  A
N555        N556   1.326       .  A
N555       Mn571   2.221       .  S
N556        C562   1.354       .  A
N557        N558   1.316       .  A
N557       Mn582   2.201       .  S
N558        C562   1.350   1_556  A
N559        N560   1.317       .  A
N559       Mn571   2.175       .  S
N560        C561   1.345       .  A
N563        N569   1.314       .  A
N563        N564   1.330       .  A
N563       Mn593   2.229       .  S
N564        C572   1.359       .  A
N565        N566   1.330       .  A
N565        N567   1.315       .  A
N565       Mn571   2.242       .  S
N566        C573   1.360       .  A
N567        N568   1.329       .  A
N567       Mn593   2.250       .  S
N568        C573   1.362       .  A
N569        N570   1.317       .  A
N569       Mn571   2.203       .  S
N570        C572   1.353       .  A
Mn571      Cl595   2.559   1_554  S
N574        N575   1.332       .  A
N574        N580   1.316       .  A
N574       Mn582   2.259       .  S
N575        C583   1.363       .  A
N576        N578   1.314       .  A
N576        N577   1.317       .  A
N576       Mn594   2.211       .  S
N577        C584   1.354       .  A
N578        N579   1.332       .  A
N578       Mn582   2.221       .  S
N579        C584   1.357       .  A
N580        N581   1.332       .  A
N580       Mn594   2.259       .  S
N581        C583   1.363       .  A
Mn582      Cl595   2.552       .  S
N585        N586   1.315       .  A
N585        N591   1.319   1_554  A
N585       Mn593   2.206   1_565  S
N586        C596   1.351   1_554  A
N587        N588   1.318       .  A
N587        N589   1.319   1_556  A
N587       Mn594   2.194   1_565  S
N588        C597   1.349       .  A
N589        N590   1.318       .  A
N589       Mn593   2.196   1_565  S
N590        C597   1.348   1_554  A
N591        N592   1.330       .  A
N591       Mn594   2.229   1_565  S
N592        C596   1.356       .  A
Mn593      Cl595   2.549   1_554  S
Mn594      Cl595   2.558       .  S
O598        C625   1.267       .  A
O598       Mn624   2.070       .  S
C599       C1093   1.434       .  S
C599        O632   1.262       .  A
C599        O629   1.263       .  A
O600       Mn607   2.193       .  S
O600       Mn618   2.102       .  S
O600       Mn622   2.179       .  S
O600       Mn624   2.105       .  S
O601        C611   1.274       .  A
O601       Mn635   2.094       .  S
O602        C625   1.265       .  A
O602       Mn618   2.054       .  S
O603        C630   1.268       .  A
O603       Mn622   2.193       .  S
O604       Mn635   1.941       .  S
O604       Mn624   1.954       .  S
O604        C620   1.219       .  S
C605        C964   1.511       .  S
C605        O608   1.266       .  A
C605        O631   1.215       .  S
O606       Mn626   2.099       .  S
O606       Mn607   2.181       .  S
O606       Mn640   2.091       .  S
O606       Mn622   2.181       .  S
Mn607       O636   2.216       .  S
Mn607       O612   2.204       .  S
Mn607       O639   2.172       .  S
Mn607       O613   2.180       .  S
O608       Mn622   2.172       .  S
O609        C611   1.263       .  A
O609       Mn616   2.053       .  S
C610       C1051   1.524       .  S
C610        O636   1.272       .  A
C610        O623   1.232       .  A
C611        C981   1.479       .  S
O612        C637   1.268       .  A
O613       Mn616   2.102       .  S
O613       Mn635   2.123       .  S
O613       Mn622   2.178       .  S
O614       Mn618   1.929       .  S
O614       Mn640   1.920       .  S
O614        C637   1.204       .  S
C615       C1006   1.469       .  S
C615        O641   1.262       .  A
C615        O617   1.269       .  A
Mn616       O629   2.056       .  S
Mn616       O623   2.005       .  S
Mn616       O631   1.961       .  S
O617       Mn640   2.077       .  S
Mn618       O634   2.087       .  S
Mn618       O628   1.950       .  S
O619        C621   1.267       .  A
O619       Mn624   2.071       .  S
C620        C939   1.523       .  S
C620        O638   1.268       .  A
C621       C1023   1.472       .  S
C621        O634   1.270       .  A
Mn622       O638   2.186       .  S
O623       Mn626   2.006       .  S
Mn624       O642   1.954       .  S
C625        C953   1.466       .  S
Mn626       O633   2.085       .  S
Mn626       O641   2.039       .  S
Mn626       O631   1.953       .  S
C627       C1065   1.447       .  S
C627        O633   1.267       .  A
C627        O643   1.261       .  A
O628       Mn640   1.947       .  S
O628        C630   1.215       .  S
C630        C992   1.530       .  S
O632       Mn635   2.062       .  S
Mn635       O642   1.970       .  S
C637       C1037   1.512       .  S
O639        C644   1.271       .  A
Mn640       O643   2.051       .  S
O642        C644   1.224       .  S
C644       C1079   1.514       .  S
C645        N646   1.351       .  A
C645        N650   1.364       .  A
C645       C1331   1.462       .  S
N646        C647   1.350       .  A
C647        N648   1.356       .  A
C647       C1818   1.469       .  S
N648        C649   1.357       .  A
C649        N650   1.363       .  A
C649        C862   1.471       .  S
C651        N652   1.352       .  A
C651        N656   1.355       .  A
C651       C1342   1.476       .  S
N652        C653   1.356       .  A
C653        N654   1.374       .  A
C653       C1804   1.484       .  S
N654        C655   1.369       .  A
C655        N656   1.355       .  A
C655        C796   1.486       .  S
C657        N658   1.359       .  A
C657        N662   1.352       .  A
C657       C1636   1.492       .  S
N658        C659   1.364       .  A
C659        N660   1.378       .  A
C659       C1513   1.498       .  S
N660        C661   1.370       .  A
C661        N662   1.349       .  A
C661        C762   1.490       .  S
C663        N664   1.355       .  A
C663        N668   1.352       .  A
C663       C1499   1.484       .  S
N664        C665   1.355       .  A
C665        N666   1.364       .  A
C665        C874   1.480       .  S
N666        C667   1.370       .  A
C667        N668   1.352       .  A
C667       C1653   1.470       .  S
C669        N670   1.349       .  A
C669        N674   1.357       .  A
C669       C1163   1.471       .  S
N670        C671   1.350       .  A
C671        N672   1.356       .  A
C671       C1009   1.469       .  S
N672        C673   1.351       .  A
C673        N674   1.350       .  A
C673        C873   1.455       .  S
C675        N676   1.363       .  A
C675        N680   1.377       .  A
C675        C995   1.517       .  S
N676        C677   1.364       .  A
C677        N678   1.373       .  A
C677       C1174   1.509       .  S
N678        C679   1.374       .  A
C679        N680   1.376       .  A
C679        C797   1.528       .  S
C681        N682   1.345       .  A
C681        N686   1.360       .  A
C681       C1986   1.452       .  S
N682        C683   1.345       .  A
C683        N684   1.353       .  A
C683       C1468   1.449       .  S
N684        C685   1.351       .  A
C685        N686   1.361       .  A
C685        C807   1.456       .  S
C687        N688   1.367       .  A
C687        N692   1.369       .  A
C687       C1485   1.508       .  S
N688        C689   1.368       .  A
C689        N690   1.378       .  A
C689       C1975   1.527       .  S
N690        C691   1.373       .  A
C691        N692   1.366       .  A
C691        C851   1.518       .  S
C693        N694   1.368       .  A
C693        N698   1.372       .  A
C693       C1779   1.517       .  S
N694        C695   1.369       .  A
C695        N696   1.376       .  A
C695       C1146   1.517       .  S
N696        C697   1.372       .  A
C697        N698   1.369       .  A
C697        C887   1.523       .  S
C699        N700   1.343       .  A
C699        N704   1.359       .  A
C699       C1790   1.444       .  S
N700        C701   1.345       .  A
C701        N702   1.353       .  A
C701       C1135   1.469       .  S
N702        C703   1.352       .  A
C703        N704   1.358       .  A
C703        C841   1.459       .  S
C705        N706   1.368       .  A
C705        N710   1.360       .  A
C705       C1622   1.468       .  S
N706        C707   1.359       .  A
C707        N708   1.347       .  A
C707        C783   1.469       .  S
N708        C709   1.352       .  A
C709        N710   1.356       .  A
C709       C1107   1.485       .  S
C711        N712   1.355       .  A
C711        N716   1.375       .  A
C711       C1121   1.486       .  S
N712        C713   1.353       .  A
C713        N714   1.358       .  A
C713       C1611   1.478       .  S
N714        C715   1.360       .  A
C715        N716   1.372       .  A
C715        C829   1.499       .  S
C717        N718   1.356       .  A
C717        N722   1.350       .  A
C717        C978   1.476       .  S
N718        C719   1.359       .  A
C719        N720   1.367       .  A
C719       C1300   1.469       .  S
N720        C721   1.359       .  A
C721        N722   1.347       .  A
C721        C842   1.466       .  S
C723        N724   1.354       .  A
C723        N728   1.358       .  A
C723       C1317   1.493       .  S
N724        C725   1.353       .  A
C725        N726   1.370       .  A
C725        C852   1.496       .  S
N726        C727   1.376       .  A
C727        N728   1.361       .  A
C727        C967   1.493       .  S
C729        N730   1.353       .  A
C729        N734   1.344       .  A
C729        C950   1.461       .  S
N730        C731   1.350       .  A
C731        N732   1.354       .  A
C731        C772   1.447       .  S
N732        C733   1.356       .  A
C733        N734   1.346       .  A
C733       C1443   1.444       .  S
C735        N736   1.376       .  A
C735        N740   1.371       .  A
C735        C936   1.519       .  S
N736        C737   1.374       .  A
C737        N738   1.374       .  A
C737        C828   1.529       .  S
N738        C739   1.376       .  A
C739        N740   1.371       .  A
C739       C1457   1.538       .  S
C741        N742   1.354       .  A
C741        N746   1.379       .  A
C741       C1947   1.493       .  S
N742        C743   1.350       .  A
C743        N744   1.355       .  A
C743       C1286   1.470       .  S
N744        C745   1.357       .  A
C745        N746   1.375       .  A
C745        C817   1.497       .  S
C747        N748   1.351       .  A
C747        N752   1.365       .  A
C747       C1275   1.460       .  S
N748        C749   1.349       .  A
C749        N750   1.357       .  A
C749       C1958   1.468       .  S
N750        C751   1.359       .  A
C751        N752   1.362       .  A
C751        C773   1.474       .  S
N753        N754   1.333       .  A
N753        N759   1.314       .  A
N753       Mn782   2.254   1_455  S
N754        C761   1.362       .  A
N755        N757   1.314       .  A
N755        N756   1.331       .  A
N755       Mn771   2.225       .  S
N756        C762   1.357       .  A
N757        N758   1.320       .  A
N757       Mn782   2.218       .  S
N758        C762   1.356       .  A
N759        N760   1.331       .  A
N759       Mn771   2.255   1_455  S
N760        C761   1.363       .  A
N763        N769   1.319       .  A
N763        N764   1.316       .  A
N763       Mn793   2.188       .  S
N764        C772   1.348       .  A
N765        N766   1.317       .  A
N765        N767   1.321       .  A
N765       Mn771   2.197   1_455  S
N766        C773   1.349       .  A
N767        N768   1.327       .  A
N767       Mn793   2.244   1_455  S
N768        C773   1.357       .  A
N769        N770   1.317       .  A
N769       Mn771   2.187       .  S
N770        C772   1.346       .  A
Mn771      Cl795   2.556       .  S
N774        N775   1.327       .  A
N774        N780   1.319       .  A
N774       Mn782   2.220       .  S
N775        C783   1.354       .  A
N776        N778   1.320       .  A
N776        N777   1.320       .  A
N776       Mn794   2.202   1_455  S
N777        C784   1.349       .  A
N778        N779   1.316       .  A
N778       Mn782   2.187   1_455  S
N779        C784   1.347       .  A
N780        N781   1.315       .  A
N780       Mn794   2.202       .  S
N781        C783   1.350       .  A
Mn782      Cl795   2.560       .  S
N785        N786   1.320       .  A
N785        N791   1.314       .  A
N785       Mn793   2.213   1_455  S
N786        C796   1.355       .  A
N787        N788   1.332       .  A
N787        N789   1.317       .  A
N787       Mn794   2.259       .  S
N788        C797   1.363       .  A
N789        N790   1.334       .  A
N789       Mn793   2.277       .  S
N790        C797   1.365       .  A
N791        N792   1.329       .  A
N791       Mn794   2.221   1_455  S
N792        C796   1.357       .  A
Mn793      Cl795   2.557       .  S
Mn794      Cl795   2.555       .  S
N798        N799   1.328       .  A
N798        N804   1.320       .  A
N798       Mn827   2.221   1_554  S
N799        C806   1.354       .  A
N800        N802   1.319       .  A
N800        N801   1.319       .  A
N800       Mn816   2.192   1_556  S
N801        C807   1.346       .  A
N802        N803   1.318       .  A
N802       Mn827   2.202       .  S
N803        C807   1.352       .  A
N804        N805   1.315       .  A
N804       Mn816   2.206       .  S
N805        C806   1.351       .  A
N808        N814   1.314       .  A
N808        N809   1.323       .  A
N808       Mn838   2.229       .  S
N809        C817   1.359       .  A
N810        N811   1.332       .  A
N810        N812   1.315       .  A
N810       Mn816   2.260       .  S
N811        C818   1.364       .  A
N812        N813   1.332       .  A
N812       Mn838   2.253   1_554  S
N813        C818   1.362       .  A
N814        N815   1.330       .  A
N814       Mn816   2.227   1_556  S
N815        C817   1.357       .  A
Mn816      Cl840   2.554   1_554  S
N819        N820   1.331       .  A
N819        N825   1.316       .  A
N819       Mn827   2.258       .  S
N820        C828   1.362       .  A
N821        N823   1.315       .  A
N821        N822   1.332       .  A
N821       Mn839   2.241   1_554  S
N822        C829   1.360       .  A
N823        N824   1.323       .  A
N823       Mn827   2.223   1_554  S
N824        C829   1.356       .  A
N825        N826   1.336       .  A
N825       Mn839   2.276       .  S
N826        C828   1.367       .  A
Mn827      Cl840   2.561       .  S
N830        N831   1.320       .  A
N830        N836   1.320       .  A
N830       Mn838   2.191   1_554  S
N831        C841   1.347       .  A
N832        N833   1.316       .  A
N832        N834   1.320       .  A
N832       Mn839   2.204       .  S
N833        C842   1.350       .  A
N834        N835   1.326       .  A
N834       Mn838   2.219       .  S
N835        C842   1.353       .  A
N836        N837   1.318       .  A
N836       Mn839   2.216   1_554  S
N837        C841   1.351       .  A
Mn838      Cl840   2.564       .  S
Mn839      Cl840   2.552       .  S
N843        N844   1.331       .  A
N843        N849   1.315       .  A
N843       Mn872   2.254       .  S
N844        C851   1.363       .  A
N845        N847   1.314       .  A
N845        N846   1.320   1_545  A
N845       Mn861   2.215       .  S
N846        C852   1.355       .  A
N847        N848   1.333   1_545  A
N847       Mn872   2.243       .  S
N848        C852   1.360       .  A
N849        N850   1.332       .  A
N849       Mn861   2.252       .  S
N850        C851   1.361       .  A
N853        N859   1.319       .  A
N853        N854   1.318   1_545  A
N853       Mn883   2.206       .  S
N854        C862   1.351       .  A
N855        N856   1.318       .  A
N855        N857   1.318       .  A
N855       Mn861   2.182       .  S
N856        C863   1.347       .  A
N857        N858   1.316       .  A
N857       Mn883   2.190       .  S
N858        C863   1.346       .  A
N859        N860   1.325   1_545  A
N859       Mn861   2.223       .  S
N860        C862   1.354       .  A
Mn861      Cl885   2.559       .  S
N864        N865   1.318   1_545  A
N864        N870   1.320       .  A
N864       Mn872   2.195       .  S
N865        C873   1.347       .  A
N866        N868   1.320       .  A
N866        N867   1.329       .  A
N866       Mn884   2.239       .  S
N867        C874   1.357       .  A
N868        N869   1.318       .  A
N868       Mn872   2.211       .  S
N869        C874   1.351       .  A
N870        N871   1.320   1_545  A
N870       Mn884   2.202       .  S
N871        C873   1.350       .  A
Mn872      Cl885   2.554       .  S
N875        N876   1.331       .  A
N875        N881   1.315       .  A
N875       Mn883   2.231       .  S
N876        C886   1.357       .  A
N877        N878   1.334   1_545  A
N877        N879   1.316       .  A
N877       Mn884   2.272       .  S
N878        C887   1.365       .  A
N879        N880   1.330   1_545  A
N879       Mn883   2.247       .  S
N880        C887   1.361       .  A
N881        N882   1.324       .  A
N881       Mn884   2.234       .  S
N882        C886   1.359       .  A
Mn883      Cl885   2.553       .  S
Mn884      Cl885   2.558       .  S
O888        C915   1.259       .  A
O888       Mn914   2.028       .  S
C889       C1919   1.441       .  S
C889        O922   1.264       .  A
C889        O919   1.267       .  A
O890       Mn897   2.168       .  S
O890       Mn908   2.110       .  S
O890       Mn912   2.189       .  S
O890       Mn914   2.116       .  S
O891        C901   1.274       .  A
O891       Mn925   2.095       .  S
O892        C915   1.269       .  A
O892       Mn908   2.079       .  S
O893        C920   1.270       .  A
O893       Mn912   2.178       .  S
O894       Mn925   1.963       .  S
O894       Mn914   1.950       .  S
O894        C910   1.218       .  S
C895       C2157   1.516       .  S
C895        O898   1.273       .  A
C895        O921   1.233       .  A
O896       Mn916   2.095       .  S
O896       Mn897   2.186       .  S
O896       Mn930   2.117       .  S
O896       Mn912   2.183       .  S
Mn897       O926   2.181       .  S
Mn897       O902   2.165       .  S
Mn897       O929   2.181       .  S
Mn897       O903   2.162       .  S
O898       Mn912   2.206       .  S
O899        C901   1.264       .  A
O899       Mn906   2.051       .  S
C900       C1888   1.520       .  S
C900        O926   1.266       .  A
C900        O913   1.216       .  S
C901       C2252   1.467       .  S
O902        C927   1.265       .  A
O903       Mn906   2.101       .  S
O903       Mn925   2.083       .  S
O903       Mn912   2.172       .  S
O904       Mn908   1.957       .  S
O904       Mn930   1.951       .  S
O904        C927   1.222       .  S
C905       C2129   1.479       .  S
C905        O931   1.265       .  A
C905        O907   1.274       .  A
Mn906       O919   2.071       .  S
Mn906       O921   1.987       .  S
Mn906       O913   1.971       .  S
O907       Mn930   2.098       .  S
Mn908       O924   2.084       .  S
Mn908       O918   1.968       .  S
O909        C911   1.272       .  A
O909       Mn914   2.090       .  S
C910       C2227   1.534       .  S
C910        O928   1.268       .  A
C911       C1723   1.477       .  S
C911        O924   1.273       .  A
Mn912       O928   2.195       .  S
O913       Mn916   1.970       .  S
Mn914       O932   1.941       .  S
C915       C2196   1.452       .  S
Mn916       O923   2.042       .  S
Mn916       O931   2.060       .  S
Mn916       O921   1.999       .  S
C917       C2059   1.440       .  S
C917        O923   1.258       .  A
C917        O933   1.262       .  A
O918       Mn930   1.947       .  S
O918        C920   1.221       .  S
C920       C2168   1.525       .  S
O922       Mn925   2.056       .  S
Mn925       O932   1.945       .  S
C927       C2087   1.525       .  S
O929        C934   1.269       .  A
Mn930       O933   2.072       .  S
O932        C934   1.213       .  S
C934       C1751   1.504       .  S
C935        C936   1.416       .  A
C935        C940   1.430       .  A
C935        H942   1.083       .  S
C936        C937   1.409       .  A
C937        C938   1.415       .  A
C937        N944   1.432       .  S
C938        C939   1.413       .  A
C938        H943   1.084       .  S
C939        C940   1.417       .  A
C940        N941   1.431       .  S
N941        H945   1.045       .  S
N941        H946   1.045       .  S
N944        H947   1.046       .  S
N944        H948   1.045       .  S
C949        C950   1.408       .  A
C949        C954   1.395       .  A
C949        H956   1.084       .  S
C950        C951   1.400       .  A
C951        C952   1.386       .  A
C951        N958   1.432       .  S
C952        C953   1.406       .  A
C952        H957   1.081       .  S
C953        C954   1.407       .  A
C954        N955   1.433       .  S
N955        H959   1.046       .  S
N955        H960   1.046       .  S
N958        H961   1.042       .  S
N958        H962   1.046       .  S
C963        C964   1.414       .  A
C963        C968   1.406       .  A
C963        H970   1.083       .  S
C964        C965   1.419       .  A
C965        C966   1.418       .  A
C965        N972   1.431       .  S
C966        C967   1.411       .  A
C966        H971   1.083       .  S
C967        C968   1.405       .  A
C968        N969   1.439       .  S
N969        H973   1.045       .  S
N969        H974   1.045       .  S
N972        H975   1.045       .  S
N972        H976   1.045       .  S
C977        C978   1.404       .  A
C977        C982   1.406       .  A
C977        H984   1.083       .  S
C978        C979   1.410       .  A
C979        C980   1.389       .  A
C979        N986   1.433       .  S
C980        C981   1.402       .  A
C980        H985   1.084       .  S
C981        C982   1.420       .  A
C982        N983   1.439       .  S
N983        H987   1.046       .  S
N983        H988   1.046       .  S
N986        H989   1.046       .  S
N986        H990   1.044       .  S
C991        C992   1.418       .  A
C991        C996   1.414       .  A
C991        H998   1.081       .  S
C992        C993   1.421       .  A
C993        C994   1.425       .  A
C993       N1000   1.431       .  S
C994        C995   1.416       .  A
C994        H999   1.083       .  S
C995        C996   1.406       .  A
C996        N997   1.432       .  S
N997       H1001   1.045       .  S
N997       H1002   1.046       .  S
N1000      H1003   1.044       .  S
N1000      H1004   1.045       .  S
C1005      C1006   1.408       .  A
C1005      C1010   1.384       .  A
C1005      H1012   1.084       .  S
C1006      C1007   1.407       .  A
C1007      C1008   1.400       .  A
C1007      N1014   1.438       .  S
C1008      C1009   1.411       .  A
C1008      H1013   1.083       .  S
C1009      C1010   1.404       .  A
C1010      N1011   1.432       .  S
N1011      H1015   1.045       .  S
N1011      H1016   1.042       .  S
N1014      H1017   1.044       .  S
N1014      H1018   1.045       .  S
C1019      C1020   1.405       .  A
C1019      C1024   1.390       .  A
C1019      H1026   1.084       .  S
C1020      C1021   1.420       .  A
C1021      C1022   1.402       .  A
C1021      N1028   1.432       .  S
C1022      C1023   1.403       .  A
C1022      H1027   1.084       .  S
C1023      C1024   1.409       .  A
C1024      N1025   1.435       .  S
N1025      H1029   1.044       .  S
N1025      H1030   1.046       .  S
N1028      H1031   1.045       .  S
N1028      H1032   1.045       .  S
C1033      C1034   1.387       .  A
C1033      C1038   1.395       .  A
C1033      H1040   1.085       .  S
C1034      C1035   1.426       .  A
C1035      C1036   1.420       .  A
C1035      N1042   1.437       .  S
C1036      C1037   1.407       .  A
C1036      H1041   1.083       .  S
C1037      C1038   1.432       .  A
C1038      N1039   1.433       .  S
N1039      H1043   1.046       .  S
N1039      H1044   1.046       .  S
N1042      H1045   1.045       .  S
N1042      H1046   1.044       .  S
C1047      C1048   1.396       .  A
C1047      C1052   1.407       .  A
C1047      H1054   1.084       .  S
C1048      C1049   1.426       .  A
C1049      C1050   1.431       .  A
C1049      N1056   1.436   1_565  S
C1050      C1051   1.408       .  A
C1050      H1055   1.083       .  S
C1051      C1052   1.431       .  A
C1052      N1053   1.433       .  S
N1053      H1057   1.046       .  S
N1053      H1058   1.046       .  S
N1056      H1059   1.045       .  S
N1056      H1060   1.046       .  S
C1061      C1062   1.397       .  A
C1061      C1066   1.388       .  A
C1061      H1068   1.084       .  S
C1062      C1063   1.409       .  A
C1063      C1064   1.405       .  A
C1063      N1070   1.437   1_565  S
C1064      C1065   1.400       .  A
C1064      H1069   1.084       .  S
C1065      C1066   1.406       .  A
C1066      N1067   1.440       .  S
N1067      H1071   1.046       .  S
N1067      H1072   1.046       .  S
N1070      H1073   1.046   1_545  S
N1070      H1074   1.045   1_545  S
C1075      C1076   1.416       .  A
C1075      C1080   1.424       .  A
C1075      H1082   1.083       .  S
C1076      C1077   1.415       .  A
C1077      C1078   1.412       .  A
C1077      N1084   1.432       .  S
C1078      C1079   1.411       .  A
C1078      H1083   1.082       .  S
C1079      C1080   1.412       .  A
C1080      N1081   1.431       .  S
N1081      H1085   1.046       .  S
N1081      H1086   1.045       .  S
N1084      H1087   1.046       .  S
N1084      H1088   1.044       .  S
C1089      C1090   1.400       .  A
C1089      C1094   1.388       .  A
C1089      H1096   1.085       .  S
C1090      C1091   1.399       .  A
C1091      C1092   1.397       .  A
C1091      N1098   1.431       .  S
C1092      C1093   1.402       .  A
C1092      H1097   1.084       .  S
C1093      C1094   1.397       .  A
C1094      N1095   1.433       .  S
N1095      H1099   1.045       .  S
N1095      H1100   1.046       .  S
N1098      H1101   1.044       .  S
N1098      H1102   1.045       .  S
C1103      C1104   1.407       .  A
C1103      C1108   1.408       .  A
C1103      H1110   1.083       .  S
C1104      C1105   1.413       .  A
C1105      C1106   1.389       .  A
C1105      N1112   1.435       .  S
C1106      C1107   1.404       .  A
C1106      H1111   1.084       .  S
C1107      C1108   1.415       .  A
C1108      N1109   1.437       .  S
N1109      H1113   1.046       .  S
N1109      H1114   1.046       .  S
N1112      H1115   1.046       .  S
N1112      H1116   1.045       .  S
C1117      C1118   1.408       .  A
C1117      C1122   1.421       .  A
C1117      H1124   1.083       .  S
C1118      C1119   1.426       .  A
C1119      C1120   1.400       .  A
C1119      N1126   1.435       .  S
C1120      C1121   1.393       .  A
C1120      H1125   1.085       .  S
C1121      C1122   1.415       .  A
C1122      N1123   1.431       .  S
N1123      H1127   1.045       .  S
N1123      H1128   1.045       .  S
N1126      H1129   1.046       .  S
N1126      H1130   1.046       .  S
C1131      C1132   1.406       .  A
C1131      C1136   1.383       .  A
C1131      H1138   1.084       .  S
C1132      C1133   1.408       .  A
C1133      C1134   1.391       .  A
C1133      N1140   1.433       .  S
C1134      C1135   1.412       .  A
C1134      H1139   1.084       .  S
C1135      C1136   1.407       .  A
C1136      N1137   1.433       .  S
N1137      H1141   1.046       .  S
N1137      H1142   1.044       .  S
N1140      H1143   1.046       .  S
N1140      H1144   1.045       .  S
C1145      C1146   1.415       .  A
C1145      C1150   1.426       .  A
C1145      H1152   1.083       .  S
C1146      C1147   1.407       .  A
C1147      C1148   1.413       .  A
C1147      N1154   1.432       .  S
C1148      C1149   1.417       .  A
C1148      H1153   1.083       .  S
C1149      C1150   1.423       .  A
C1150      N1151   1.431       .  S
N1151      H1155   1.046       .  S
N1151      H1156   1.045       .  S
N1154      H1157   1.045       .  S
N1154      H1158   1.046       .  S
C1159      C1160   1.410       .  A
C1159      C1164   1.388       .  A
C1159      H1166   1.082       .  S
C1160      C1161   1.407       .  A
C1161      C1162   1.402       .  A
C1161      N1168   1.437       .  S
C1162      C1163   1.411       .  A
C1162      H1167   1.083       .  S
C1163      C1164   1.403       .  A
C1164      N1165   1.437       .  S
N1165      H1169   1.045       .  S
N1165      H1170   1.044       .  S
N1168      H1171   1.046       .  S
N1168      H1172   1.046       .  S
C1173      C1174   1.409       .  A
C1173      C1178   1.423       .  A
C1173      H1180   1.083       .  S
C1174      C1175   1.413       .  A
C1175      C1176   1.407       .  A
C1175      N1182   1.433       .  S
C1176      C1177   1.413       .  A
C1176      H1181   1.084       .  S
C1177      C1178   1.428       .  A
C1178      N1179   1.436       .  S
N1179      H1183   1.040       .  S
N1179      H1184   1.045       .  S
N1182      H1185   1.045       .  S
N1182      H1186   1.045       .  S
C1187      C1188   1.399       .  A
C1187      C1192   1.394       .  A
C1187      H1194   1.084       .  S
C1188      C1189   1.407       .  A
C1189      C1190   1.399       .  A
C1189      N1196   1.432       .  S
C1190      C1191   1.399       .  A
C1190      H1195   1.084       .  S
C1191      C1192   1.407       .  A
C1192      N1193   1.439       .  S
N1193      H1197   1.046       .  S
N1193      H1198   1.045       .  S
N1196      H1199   1.046       .  S
N1196      H1200   1.046       .  S
C1201      C1202   1.420       .  A
C1201      C1206   1.429       .  A
C1201      H1208   1.083       .  S
C1202      C1203   1.416       .  A
C1203      C1204   1.418       .  A
C1203      N1210   1.438       .  S
C1204      C1205   1.415       .  A
C1204      H1209   1.082       .  S
C1205      C1206   1.413       .  A
C1206      N1207   1.436       .  S
N1207      H1211   1.045       .  S
N1207      H1212   1.045       .  S
N1210      H1213   1.046       .  S
N1210      H1214   1.046       .  S
C1215      C1216   1.416       .  A
C1215      C1220   1.393       .  A
C1215      H1222   1.079       .  S
C1216      C1217   1.403       .  A
C1217      C1218   1.417       .  A
C1217      N1224   1.431       .  S
C1218      C1219   1.418       .  A
C1218      H1223   1.084   1_565  S
C1219      C1220   1.398       .  A
C1220      N1221   1.434       .  S
N1221      H1225   1.046       .  S
N1221      H1226   1.046       .  S
N1224      H1227   1.045       .  S
N1224      H1228   1.046       .  S
C1229      C1230   1.400       .  A
C1229      C1234   1.399       .  A
C1229      H1236   1.078       .  S
C1230      C1231   1.402       .  A
C1231      C1232   1.396   1_565  A
C1231      N1238   1.433       .  S
C1232      C1233   1.403       .  A
C1232      H1237   1.084       .  S
C1233      C1234   1.404   1_545  A
C1234      N1235   1.438       .  S
N1235      H1239   1.045       .  S
N1235      H1240   1.045       .  S
N1238      H1241   1.045       .  S
N1238      H1242   1.046       .  S
C1243      C1244   1.414       .  A
C1243      C1248   1.411       .  A
C1243      H1250   1.084       .  S
C1244      C1245   1.421       .  A
C1245      C1246   1.421       .  A
C1245      N1252   1.427       .  S
C1246      C1247   1.412       .  A
C1246      H1251   1.083       .  S
C1247      C1248   1.413       .  A
C1248      N1249   1.432       .  S
N1249      H1253   1.046       .  S
N1249      H1254   1.046       .  S
N1252      H1255   1.048       .  S
N1252      H1256   1.034       .  S
C1257      C1258   1.393       .  A
C1257      C1262   1.397       .  A
C1257      H1264   1.084       .  S
C1258      C1259   1.404       .  A
C1259      C1260   1.390       .  A
C1259      N1266   1.433       .  S
C1260      C1261   1.394       .  A
C1260      H1265   1.085       .  S
C1261      C1262   1.411       .  A
C1262      N1263   1.433       .  S
N1263      H1267   1.049       .  S
N1263      H1268   1.033       .  S
N1266      H1269   1.046       .  S
N1266      H1270   1.045       .  S
C1271      C1272   1.413       .  A
C1271      C1276   1.386       .  A
C1271      H1278   1.084       .  S
C1272      C1273   1.410       .  A
C1273      C1274   1.414       .  A
C1273      N1280   1.436       .  S
C1274      C1275   1.407       .  A
C1274      H1279   1.083       .  S
C1275      C1276   1.395       .  A
C1276      N1277   1.434       .  S
N1277      H1281   1.046       .  S
N1277      H1282   1.046       .  S
N1280      H1283   1.046       .  S
N1280      H1284   1.045       .  S
C1285      C1286   1.406       .  A
C1285      C1290   1.408       .  A
C1285      H1292   1.084       .  S
C1286      C1287   1.408       .  A
C1287      C1288   1.391       .  A
C1287      N1294   1.433       .  S
C1288      C1289   1.403       .  A
C1288      H1293   1.076       .  S
C1289      C1290   1.413       .  A
C1290      N1291   1.438       .  S
N1291      H1295   1.046       .  S
N1291      H1296   1.045       .  S
N1294      H1297   1.046       .  S
N1294      H1298   1.044       .  S
C1299      C1300   1.409       .  A
C1299      C1304   1.408       .  A
C1299      H1306   1.084       .  S
C1300      C1301   1.401       .  A
C1301      C1302   1.392       .  A
C1301      N1308   1.440       .  S
C1302      C1303   1.415       .  A
C1302      H1307   1.083       .  S
C1303      C1304   1.413       .  A
C1304      N1305   1.431       .  S
N1305      H1309   1.044       .  S
N1305      H1310   1.045       .  S
N1308      H1311   1.046       .  S
N1308      H1312   1.046       .  S
C1313      C1314   1.401       .  A
C1313      C1318   1.390       .  A
C1313      H1320   1.085       .  S
C1314      C1315   1.414       .  A
C1315      C1316   1.407       .  A
C1315      N1322   1.432       .  S
C1316      C1317   1.411       .  A
C1316      H1321   1.083       .  S
C1317      C1318   1.422       .  A
C1318      N1319   1.433       .  S
N1319      H1323   1.044       .  S
N1319      H1324   1.046       .  S
N1322      H1325   1.045       .  S
N1322      H1326   1.044       .  S
C1327      C1328   1.413       .  A
C1327      C1332   1.394       .  A
C1327      H1334   1.083       .  S
C1328      C1329   1.413       .  A
C1329      C1330   1.405       .  A
C1329      N1336   1.431       .  S
C1330      C1331   1.405       .  A
C1330      H1335   1.084       .  S
C1331      C1332   1.401       .  A
C1332      N1333   1.440       .  S
N1333      H1337   1.045       .  S
N1333      H1338   1.046       .  S
N1336      H1339   1.045       .  S
N1336      H1340   1.045       .  S
C1341      C1342   1.405       .  A
C1341      C1346   1.406       .  A
C1341      H1348   1.084       .  S
C1342      C1343   1.405       .  A
C1343      C1344   1.396       .  A
C1343      N1350   1.432       .  S
C1344      C1345   1.406       .  A
C1344      H1349   1.083       .  S
C1345      C1346   1.414       .  A
C1346      N1347   1.433       .  S
N1347      H1351   1.046       .  S
N1347      H1352   1.046       .  S
N1350      H1353   1.046       .  S
N1350      H1354   1.043       .  S
C1355      C1356   1.410       .  A
C1355      C1360   1.393       .  A
C1355      H1362   1.084       .  S
C1356      C1357   1.412       .  A
C1357      C1358   1.410       .  A
C1357      N1364   1.431       .  S
C1358      C1359   1.405       .  A
C1358      H1363   1.084       .  S
C1359      C1360   1.407       .  A
C1360      N1361   1.434       .  S
N1361      H1365   1.046       .  S
N1361      H1366   1.045       .  S
N1364      H1367   1.046       .  S
N1364      H1368   1.045       .  S
C1369      C1370   1.404       .  A
C1369      C1374   1.393       .  A
C1369      H1376   1.084       .  S
C1370      C1371   1.422       .  A
C1371      C1372   1.402       .  A
C1371      N1378   1.433       .  S
C1372      C1373   1.401       .  A
C1372      H1377   1.084   1_455  S
C1373      C1374   1.401       .  A
C1374      N1375   1.428       .  S
N1375      H1379   1.046       .  S
N1375      H1380   1.040       .  S
N1378      H1381   1.045       .  S
N1378      H1382   1.046       .  S
C1383      C1384   1.411       .  A
C1383      C1388   1.409   1_545  A
C1383      H1390   1.083       .  S
C1384      C1385   1.420   1_545  A
C1385      C1386   1.393       .  A
C1385      N1392   1.439       .  S
C1386      C1387   1.402       .  A
C1386      H1391   1.084       .  S
C1387      C1388   1.409       .  A
C1388      N1389   1.438       .  S
N1389      H1393   1.046       .  S
N1389      H1394   1.045       .  S
N1392      H1395   1.046       .  S
N1392      H1396   1.046       .  S
C1397      C1398   1.390       .  A
C1397      C1402   1.393       .  A
C1397      H1404   1.085       .  S
C1398      C1399   1.414       .  A
C1399      C1400   1.417       .  A
C1399      N1406   1.436       .  S
C1400      C1401   1.406       .  A
C1400      H1405   1.083       .  S
C1401      C1402   1.425       .  A
C1402      N1403   1.435       .  S
N1403      H1407   1.046       .  S
N1403      H1408   1.046       .  S
N1406      H1409   1.045       .  S
N1406      H1410   1.046       .  S
C1411      C1412   1.398       .  A
C1411      C1416   1.403       .  A
C1411      H1418   1.084       .  S
C1412      C1413   1.412       .  A
C1413      C1414   1.408       .  A
C1413      N1420   1.431       .  S
C1414      C1415   1.407       .  A
C1414      H1419   1.084       .  S
C1415      C1416   1.418       .  A
C1416      N1417   1.438       .  S
N1417      H1421   1.046       .  S
N1417      H1422   1.045       .  S
N1420      H1423   1.045       .  S
N1420      H1424   1.046       .  S
C1425      C1426   1.405       .  A
C1425      C1430   1.396       .  A
C1425      H1432   1.083       .  S
C1426      C1427   1.411       .  A
C1427      C1428   1.405       .  A
C1427      N1434   1.431       .  S
C1428      C1429   1.402       .  A
C1428      H1433   1.084       .  S
C1429      C1430   1.413       .  A
C1430      N1431   1.440       .  S
N1431      H1435   1.046       .  S
N1431      H1436   1.046       .  S
N1434      H1437   1.046       .  S
N1434      H1438   1.045       .  S
C1439      C1440   1.394       .  A
C1439      C1444   1.396       .  A
C1439      H1446   1.084       .  S
C1440      C1441   1.407       .  A
C1441      C1442   1.385       .  A
C1441      N1448   1.435       .  S
C1442      C1443   1.396       .  A
C1442      H1447   1.084       .  S
C1443      C1444   1.410       .  A
C1444      N1445   1.437       .  S
N1445      H1449   1.045       .  S
N1445      H1450   1.046       .  S
N1448      H1451   1.046       .  S
N1448      H1452   1.046       .  S
C1453      C1454   1.412       .  A
C1453      C1458   1.424       .  A
C1453      H1460   1.083       .  S
C1454      C1455   1.415       .  A
C1455      C1456   1.429       .  A
C1455      N1462   1.431       .  S
C1456      C1457   1.419       .  A
C1456      H1461   1.083       .  S
C1457      C1458   1.422       .  A
C1458      N1459   1.437       .  S
N1459      H1463   1.046       .  S
N1459      H1464   1.046       .  S
N1462      H1465   1.045       .  S
N1462      H1466   1.045       .  S
C1467      C1468   1.400       .  A
C1467      C1472   1.382       .  A
C1467      H1474   1.085       .  S
C1468      C1469   1.406       .  A
C1469      C1470   1.396       .  A
C1469      N1476   1.432       .  S
C1470      C1471   1.398       .  A
C1470      H1475   1.084       .  S
C1471      C1472   1.412       .  A
C1472      N1473   1.440       .  S
N1473      H1477   1.046       .  S
N1473      H1478   1.044       .  S
N1476      H1479   1.046       .  S
N1476      H1480   1.046       .  S
C1481      C1482   1.412       .  A
C1481      C1486   1.422       .  A
C1481      H1488   1.083       .  S
C1482      C1483   1.434       .  A
C1483      C1484   1.402       .  A
C1483      N1490   1.433       .  S
C1484      C1485   1.397       .  A
C1484      H1489   1.084       .  S
C1485      C1486   1.422       .  A
C1486      N1487   1.431       .  S
N1487      H1491   1.046       .  S
N1487      H1492   1.044       .  S
N1490      H1493   1.044       .  S
N1490      H1494   1.045       .  S
C1495      C1496   1.408       .  A
C1495      C1500   1.395       .  A
C1495      H1502   1.081       .  S
C1496      C1497   1.411       .  A
C1497      C1498   1.406       .  A
C1497      N1504   1.437       .  S
C1498      C1499   1.410       .  A
C1498      H1503   1.083       .  S
C1499      C1500   1.411       .  A
C1500      N1501   1.439       .  S
N1501      H1505   1.045       .  S
N1501      H1506   1.045       .  S
N1504      H1507   1.045       .  S
N1504      H1508   1.046       .  S
C1509      C1510   1.415       .  A
C1509      C1514   1.399       .  A
C1509      H1516   1.082       .  S
C1510      C1511   1.411       .  A
C1511      C1512   1.425       .  A
C1511      N1518   1.435       .  S
C1512      C1513   1.417       .  A
C1512      H1517   1.083       .  S
C1513      C1514   1.402       .  A
C1514      N1515   1.433       .  S
N1515      H1519   1.046       .  S
N1515      H1520   1.046       .  S
N1518      H1521   1.045       .  S
N1518      H1522   1.046       .  S
C1523      C1524   1.407       .  A
C1523      C1528   1.387       .  A
C1523      H1530   1.083       .  S
C1524      C1525   1.402       .  A
C1525      C1526   1.391       .  A
C1525      N1532   1.433       .  S
C1526      C1527   1.409       .  A
C1526      H1531   1.083       .  S
C1527      C1528   1.411       .  A
C1528      N1529   1.433       .  S
N1529      H1533   1.044       .  S
N1529      H1534   1.045       .  S
N1532      H1535   1.045       .  S
N1532      H1536   1.046       .  S
C1537      C1538   1.418       .  A
C1537      C1542   1.413       .  A
C1537      H1544   1.083       .  S
C1538      C1539   1.431       .  A
C1539      C1540   1.419       .  A
C1539      N1546   1.437       .  S
C1540      C1541   1.407       .  A
C1540      H1545   1.084       .  S
C1541      C1542   1.406       .  A
C1542      N1543   1.438       .  S
N1543      H1547   1.046       .  S
N1543      H1548   1.046       .  S
N1546      H1549   1.037       .  S
N1546      H1550   1.045       .  S
C1551      C1552   1.410       .  A
C1551      C1556   1.403       .  A
C1551      H1558   1.084       .  S
C1552      C1553   1.412       .  A
C1553      C1554   1.387       .  A
C1553      N1560   1.440       .  S
C1554      C1555   1.400       .  A
C1554      H1559   1.084       .  S
C1555      C1556   1.402       .  A
C1556      N1557   1.432       .  S
N1557      H1561   1.046       .  S
N1557      H1562   1.046       .  S
N1560      H1563   1.046       .  S
N1560      H1564   1.046       .  S
C1565      C1566   1.403       .  A
C1565      C1570   1.419       .  A
C1565      H1572   1.084       .  S
C1566      C1567   1.422       .  A
C1567      C1568   1.435       .  A
C1567      N1574   1.436       .  S
C1568      C1569   1.414       .  A
C1568      H1573   1.083       .  S
C1569      C1570   1.430       .  A
C1570      N1571   1.433       .  S
N1571      H1575   1.046       .  S
N1571      H1576   1.046       .  S
N1574      H1577   1.045       .  S
N1574      H1578   1.045       .  S
C1579      C1580   1.389       .  A
C1579      C1584   1.397       .  A
C1579      H1586   1.085       .  S
C1580      C1581   1.417       .  A
C1581      C1582   1.416       .  A
C1581      N1588   1.431       .  S
C1582      C1583   1.402       .  A
C1582      H1587   1.083       .  S
C1583      C1584   1.434       .  A
C1584      N1585   1.436       .  S
N1585      H1589   1.045       .  S
N1585      H1590   1.046       .  S
N1588      H1591   1.045       .  S
N1588      H1592   1.046       .  S
C1593      C1594   1.404       .  A
C1593      C1598   1.405       .  A
C1593      H1600   1.083       .  S
C1594      C1595   1.407       .  A
C1595      C1596   1.395       .  A
C1595      N1602   1.433       .  S
C1596      C1597   1.405       .  A
C1596      H1601   1.083       .  S
C1597      C1598   1.419       .  A
C1598      N1599   1.439       .  S
N1599      H1603   1.046       .  S
N1599      H1604   1.046       .  S
N1602      H1605   1.046       .  S
N1602      H1606   1.044       .  S
C1607      C1608   1.407       .  A
C1607      C1612   1.398       .  A
C1607      H1614   1.079       .  S
C1608      C1609   1.409       .  A
C1609      C1610   1.406       .  A
C1609      N1616   1.432       .  S
C1610      C1611   1.406       .  A
C1610      H1615   1.084       .  S
C1611      C1612   1.409       .  A
C1612      N1613   1.432       .  S
N1613      H1617   1.046       .  S
N1613      H1618   1.044       .  S
N1616      H1619   1.045       .  S
N1616      H1620   1.046       .  S
C1621      C1622   1.386       .  A
C1621      C1626   1.389       .  A
C1621      H1628   1.085       .  S
C1622      C1623   1.414       .  A
C1623      C1624   1.410       .  A
C1623      N1630   1.431       .  S
C1624      C1625   1.407       .  A
C1624      H1629   1.083       .  S
C1625      C1626   1.424       .  A
C1626      N1627   1.429       .  S
N1627      H1631   1.046       .  S
N1627      H1632   1.046       .  S
N1630      H1633   1.045       .  S
N1630      H1634   1.046       .  S
C1635      C1636   1.408       .  A
C1635      C1640   1.414       .  A
C1635      H1642   1.083       .  S
C1636      C1637   1.414       .  A
C1637      C1638   1.392       .  A
C1637      N1644   1.433       .  S
C1638      C1639   1.404       .  A
C1638      H1643   1.084       .  S
C1639      C1640   1.419       .  A
C1640      N1641   1.438       .  S
N1641      H1645   1.045       .  S
N1641      H1646   1.046       .  S
N1644      H1647   1.045       .  S
N1644      H1648   1.046       .  S
C1649      C1650   1.409       .  A
C1649      C1654   1.394       .  A
C1649      H1656   1.084       .  S
C1650      C1651   1.407       .  A
C1651      C1652   1.409       .  A
C1651      N1658   1.431       .  S
C1652      C1653   1.408       .  A
C1652      H1657   1.084       .  S
C1653      C1654   1.412       .  A
C1654      N1655   1.440       .  S
N1655      H1659   1.046       .  S
N1655      H1660   1.042       .  S
N1658      H1661   1.046       .  S
N1658      H1662   1.046       .  S
C1663      C1664   1.402       .  A
C1663      C1668   1.403       .  A
C1663      H1670   1.084       .  S
C1664      C1665   1.416       .  A
C1665      C1666   1.392       .  A
C1665      N1672   1.435       .  S
C1666      C1667   1.402       .  A
C1666      H1671   1.084       .  S
C1667      C1668   1.416       .  A
C1668      N1669   1.432       .  S
N1669      H1673   1.045       .  S
N1669      H1674   1.046       .  S
N1672      H1675   1.046       .  S
N1672      H1676   1.046       .  S
C1677      C1678   1.407       .  A
C1677      C1682   1.408       .  A
C1677      H1684   1.083       .  S
C1678      C1679   1.415       .  A
C1679      C1680   1.396       .  A
C1679      N1686   1.434       .  S
C1680      C1681   1.397       .  A
C1680      H1685   1.085       .  S
C1681      C1682   1.413       .  A
C1682      N1683   1.432       .  S
N1683      H1687   1.045       .  S
N1683      H1688   1.046       .  S
N1686      H1689   1.046       .  S
N1686      H1690   1.046       .  S
C1691      C1692   1.402       .  A
C1691      C1696   1.406       .  A
C1691      H1698   1.084       .  S
C1692      C1693   1.417       .  A
C1693      C1694   1.389       .  A
C1693      N1700   1.435       .  S
C1694      C1695   1.401       .  A
C1694      H1699   1.083       .  S
C1695      C1696   1.417       .  A
C1696      N1697   1.432       .  S
N1697      H1701   1.046       .  S
N1697      H1702   1.046       .  S
N1700      H1703   1.045       .  S
N1700      H1704   1.046       .  S
C1705      C1706   1.410       .  A
C1705      C1710   1.394       .  A
C1705      H1712   1.084       .  S
C1706      C1707   1.411       .  A
C1707      C1708   1.410       .  A
C1707      N1714   1.431       .  S
C1708      C1709   1.405       .  A
C1708      H1713   1.084       .  S
C1709      C1710   1.400       .  A
C1710      N1711   1.433       .  S
N1711      H1715   1.046       .  S
N1711      H1716   1.045       .  S
N1714      H1717   1.046       .  S
N1714      H1718   1.045       .  S
C1719      C1720   1.407       .  A
C1719      C1724   1.402       .  A
C1719      H1726   1.084   1_455  S
C1720      C1721   1.411       .  A
C1721      C1722   1.390       .  A
C1721      N1728   1.434       .  S
C1722      C1723   1.403       .  A
C1722      H1727   1.080       .  S
C1723      C1724   1.415       .  A
C1724      N1725   1.433       .  S
N1725      H1729   1.046       .  S
N1725      H1730   1.045       .  S
N1728      H1731   1.045       .  S
N1728      H1732   1.044       .  S
C1733      C1734   1.410       .  A
C1733      C1738   1.416       .  A
C1733      H1740   1.083       .  S
C1734      C1735   1.419       .  A
C1735      C1736   1.393       .  A
C1735      N1742   1.427       .  S
C1736      C1737   1.389       .  A
C1736      H1741   1.085       .  S
C1737      C1738   1.410       .  A
C1738      N1739   1.431       .  S
N1739      H1743   1.045       .  S
N1739      H1744   1.046       .  S
N1742      H1745   1.045       .  S
N1742      H1746   1.046       .  S
C1747      C1748   1.417       .  A
C1747      C1752   1.416       .  A
C1747      H1754   1.083       .  S
C1748      C1749   1.406       .  A
C1749      C1750   1.401       .  A
C1749      N1756   1.433       .  S
C1750      C1751   1.413       .  A
C1750      H1755   1.082       .  S
C1751      C1752   1.413       .  A
C1752      N1753   1.431       .  S
N1753      H1757   1.045       .  S
N1753      H1758   1.046       .  S
N1756      H1759   1.046       .  S
N1756      H1760   1.046       .  S
C1761      C1762   1.410       .  A
C1761      C1766   1.414       .  A
C1761      H1768   1.083       .  S
C1762      C1763   1.416       .  A
C1763      C1764   1.398       .  A
C1763      N1770   1.433       .  S
C1764      C1765   1.404       .  A
C1764      H1769   1.084       .  S
C1765      C1766   1.417       .  A
C1766      N1767   1.438       .  S
N1767      H1771   1.046       .  S
N1767      H1772   1.046       .  S
N1770      H1773   1.046       .  S
N1770      H1774   1.043       .  S
C1775      C1776   1.412       .  A
C1775      C1780   1.429       .  A
C1775      H1782   1.083       .  S
C1776      C1777   1.428       .  A
C1777      C1778   1.410       .  A
C1777      N1784   1.433       .  S
C1778      C1779   1.400       .  A
C1778      H1783   1.084       .  S
C1779      C1780   1.420       .  A
C1780      N1781   1.431       .  S
N1781      H1785   1.046       .  S
N1781      H1786   1.045       .  S
N1784      H1787   1.046       .  S
N1784      H1788   1.046       .  S
C1789      C1790   1.402       .  A
C1789      C1794   1.389       .  A
C1789      H1796   1.085       .  S
C1790      C1791   1.396       .  A
C1791      C1792   1.397       .  A
C1791      N1798   1.431       .  S
C1792      C1793   1.405       .  A
C1792      H1797   1.081       .  S
C1793      C1794   1.403       .  A
C1794      N1795   1.433       .  S
N1795      H1799   1.045       .  S
N1795      H1800   1.046       .  S
N1798      H1801   1.041       .  S
N1798      H1802   1.046       .  S
C1803      C1804   1.415       .  A
C1803      C1808   1.417       .  A
C1803      H1810   1.083       .  S
C1804      C1805   1.399       .  A
C1805      C1806   1.397       .  A
C1805      N1812   1.434       .  S
C1806      C1807   1.419       .  A
C1806      H1811   1.084       .  S
C1807      C1808   1.405       .  A
C1808      N1809   1.430       .  S
N1809      H1813   1.045       .  S
N1809      H1814   1.046       .  S
N1812      H1815   1.045       .  S
N1812      H1816   1.046       .  S
C1817      C1818   1.407       .  A
C1817      C1822   1.399       .  A
C1817      H1824   1.084       .  S
C1818      C1819   1.402       .  A
C1819      C1820   1.393       .  A
C1819      N1826   1.433       .  S
C1820      C1821   1.404       .  A
C1820      H1825   1.075       .  S
C1821      C1822   1.413       .  A
C1822      N1823   1.432       .  S
N1823      H1827   1.046       .  S
N1823      H1828   1.045       .  S
N1826      H1829   1.045       .  S
N1826      H1830   1.046       .  S
C1831      C1832   1.420       .  A
C1831      C1836   1.415       .  A
C1831      H1838   1.083       .  S
C1832      C1833   1.416       .  A
C1833      C1834   1.433       .  A
C1833      N1840   1.430       .  S
C1834      C1835   1.418       .  A
C1834      H1839   1.083       .  S
C1835      C1836   1.408       .  A
C1836      N1837   1.432       .  S
N1837      H1841   1.046       .  S
N1837      H1842   1.046       .  S
N1840      H1843   1.045       .  S
N1840      H1844   1.046       .  S
C1845      C1846   1.408       .  A
C1845      C1850   1.383       .  A
C1845      H1852   1.084       .  S
C1846      C1847   1.402       .  A
C1847      C1848   1.401       .  A
C1847      N1854   1.433       .  S
C1848      C1849   1.416       .  A
C1848      H1853   1.083       .  S
C1849      C1850   1.405       .  A
C1850      N1851   1.433       .  S
N1851      H1855   1.046       .  S
N1851      H1856   1.043       .  S
N1854      H1857   1.046       .  S
N1854      H1858   1.045       .  S
C1859      C1860   1.414       .  A
C1859      C1864   1.405       .  A
C1859      H1866   1.083       .  S
C1860      C1861   1.416       .  A
C1861      C1862   1.427       .  A
C1861      N1868   1.435       .  S
C1862      C1863   1.413       .  A
C1862      H1867   1.083       .  S
C1863      C1864   1.404       .  A
C1864      N1865   1.433       .  S
N1865      H1869   1.046       .  S
N1865      H1870   1.046       .  S
N1868      H1871   1.045       .  S
N1868      H1872   1.045       .  S
C1873      C1874   1.405       .  A
C1873      C1878   1.395       .  A
C1873      H1880   1.084       .  S
C1874      C1875   1.416       .  A
C1875      C1876   1.404       .  A
C1875      N1882   1.438       .  S
C1876      C1877   1.405       .  A
C1876      H1881   1.083       .  S
C1877      C1878   1.413       .  A
C1878      N1879   1.433       .  S
N1879      H1883   1.046       .  S
N1879      H1884   1.044       .  S
N1882      H1885   1.045       .  S
N1882      H1886   1.046       .  S
C1887      C1888   1.408       .  A
C1887      C1892   1.421       .  A
C1887      H1894   1.084       .  S
C1888      C1889   1.422       .  A
C1889      C1890   1.411       .  A
C1889      N1896   1.429       .  S
C1890      C1891   1.403       .  A
C1890      H1895   1.084       .  S
C1891      C1892   1.431       .  A
C1892      N1893   1.432       .  S
N1893      H1897   1.044       .  S
N1893      H1898   1.045       .  S
N1896      H1899   1.045       .  S
N1896      H1900   1.046       .  S
C1901      C1902   1.414       .  A
C1901      C1906   1.408       .  A
C1901      H1908   1.083       .  S
C1902      C1903   1.415       .  A
C1903      C1904   1.421       .  A
C1903      N1910   1.430       .  S
C1904      C1905   1.410       .  A
C1904      H1909   1.083       .  S
C1905      C1906   1.406       .  A
C1906      N1907   1.433       .  S
N1907      H1911   1.046       .  S
N1907      H1912   1.046       .  S
N1910      H1913   1.046       .  S
N1910      H1914   1.045       .  S
C1915      C1916   1.406       .  A
C1915      C1920   1.396       .  A
C1915      H1922   1.084       .  S
C1916      C1917   1.412       .  A
C1917      C1918   1.383       .  A
C1917      N1924   1.434       .  S
C1918      C1919   1.399       .  A
C1918      H1923   1.085       .  S
C1919      C1920   1.398       .  A
C1920      N1921   1.432       .  S
N1921      H1925   1.044       .  S
N1921      H1926   1.045       .  S
N1924      H1927   1.045       .  S
N1924      H1928   1.045       .  S
C1929      C1930   1.412   1_545  A
C1929      C1934   1.395   1_545  A
C1929      H1936   1.083       .  S
C1930      C1931   1.400       .  A
C1931      C1932   1.390       .  A
C1931      N1938   1.437       .  S
C1932      C1933   1.410       .  A
C1932      H1937   1.081       .  S
C1933      C1934   1.403       .  A
C1934      N1935   1.433       .  S
N1935      H1939   1.045       .  S
N1935      H1940   1.046   1_565  S
N1938      H1941   1.045       .  S
N1938      H1942   1.044       .  S
C1943      C1944   1.403       .  A
C1943      C1948   1.423       .  A
C1943      H1950   1.083       .  S
C1944      C1945   1.437       .  A
C1945      C1946   1.399       .  A
C1945      N1952   1.435       .  S
C1946      C1947   1.388       .  A
C1946      H1951   1.084       .  S
C1947      C1948   1.423       .  A
C1948      N1949   1.437       .  S
N1949      H1953   1.045       .  S
N1949      H1954   1.045       .  S
N1952      H1955   1.046       .  S
N1952      H1956   1.046       .  S
C1957      C1958   1.406       .  A
C1957      C1962   1.406       .  A
C1957      H1964   1.084       .  S
C1958      C1959   1.400       .  A
C1959      C1960   1.396       .  A
C1959      N1966   1.433       .  S
C1960      C1961   1.405       .  A
C1960      H1965   1.076       .  S
C1961      C1962   1.411       .  A
C1962      N1963   1.438       .  S
N1963      H1967   1.046       .  S
N1963      H1968   1.046       .  S
N1966      H1969   1.045       .  S
N1966      H1970   1.046       .  S
C1971      C1972   1.410       .  A
C1971      C1976   1.428       .  A
C1971      H1978   1.083       .  S
C1972      C1973   1.424       .  A
C1973      C1974   1.414       .  A
C1973      N1980   1.429       .  S
C1974      C1975   1.403       .  A
C1974      H1979   1.084       .  S
C1975      C1976   1.424       .  A
C1976      N1977   1.431       .  S
N1977      H1981   1.046       .  S
N1977      H1982   1.045       .  S
N1980      H1983   1.044       .  S
N1980      H1984   1.046       .  S
C1985      C1986   1.400       .  A
C1985      C1990   1.395       .  A
C1985      H1992   1.084       .  S
C1986      C1987   1.405       .  A
C1987      C1988   1.400       .  A
C1987      N1994   1.431       .  S
C1988      C1989   1.399       .  A
C1988      H1993   1.084       .  S
C1989      C1990   1.404       .  A
C1990      N1991   1.434       .  S
N1991      H1995   1.045       .  S
N1991      H1996   1.046       .  S
N1994      H1997   1.045       .  S
N1994      H1998   1.043       .  S
C1999      C2000   1.406       .  A
C1999      C2004   1.420       .  A
C1999      H2006   1.083       .  S
C2000      C2001   1.427       .  A
C2001      C2002   1.396       .  A
C2001      N2008   1.433       .  S
C2002      C2003   1.390       .  A
C2002      H2007   1.085       .  S
C2003      C2004   1.424       .  A
C2004      N2005   1.436       .  S
N2005      H2009   1.045       .  S
N2005      H2010   1.044       .  S
N2008      H2011   1.046       .  S
N2008      H2012   1.046       .  S
C2013      C2014   1.405       .  A
C2013      C2018   1.382       .  A
C2013      H2020   1.083       .  S
C2014      C2015   1.413       .  A
C2015      C2016   1.409       .  A
C2015      N2022   1.437       .  S
C2016      C2017   1.406       .  A
C2016      H2021   1.084       .  S
C2017      C2018   1.403       .  A
C2018      N2019   1.434       .  S
N2019      H2023   1.045       .  S
N2019      H2024   1.046       .  S
N2022      H2025   1.046       .  S
N2022      H2026   1.046       .  S
C2027      C2028   1.416       .  A
C2027      C2032   1.415       .  A
C2027      H2034   1.083       .  S
C2028      C2029   1.423       .  A
C2029      C2030   1.424       .  A
C2029      N2036   1.431       .  S
C2030      C2031   1.413       .  A
C2030      H2035   1.083       .  S
C2031      C2032   1.411       .  A
C2032      N2033   1.438       .  S
N2033      H2037   1.046       .  S
N2033      H2038   1.046       .  S
N2036      H2039   1.045       .  S
N2036      H2040   1.046       .  S
C2041      C2042   1.398       .  A
C2041      C2046   1.395       .  A
C2041      H2048   1.084       .  S
C2042      C2043   1.407       .  A
C2043      C2044   1.386       .  A
C2043      N2050   1.441       .  S
C2044      C2045   1.402       .  A
C2044      H2049   1.084       .  S
C2045      C2046   1.416       .  A
C2046      N2047   1.433       .  S
N2047      H2051   1.043   1_455  S
N2047      H2052   1.045       .  S
N2050      H2053   1.046       .  S
N2050      H2054   1.046       .  S
C2055      C2056   1.399       .  A
C2055      C2060   1.388       .  A
C2055      H2062   1.085       .  S
C2056      C2057   1.403       .  A
C2057      C2058   1.398       .  A
C2057      N2064   1.432       .  S
C2058      C2059   1.400       .  A
C2058      H2063   1.084       .  S
C2059      C2060   1.403       .  A
C2060      N2061   1.434       .  S
N2061      H2065   1.045       .  S
N2061      H2066   1.046       .  S
N2064      H2067   1.045       .  S
N2064      H2068   1.046       .  S
C2069      C2070   1.410       .  A
C2069      C2074   1.401       .  A
C2069      H2076   1.084       .  S
C2070      C2071   1.410       .  A
C2071      C2072   1.385       .  A
C2071      N2078   1.434       .  S
C2072      C2073   1.404       .  A
C2072      H2077   1.084       .  S
C2073      C2074   1.405       .  A
C2074      N2075   1.432       .  S
N2075      H2079   1.045       .  S
N2075      H2080   1.046       .  S
N2078      H2081   1.046       .  S
N2078      H2082   1.045       .  S
C2083      C2084   1.411       .  A
C2083      C2088   1.424       .  A
C2083      H2090   1.084       .  S
C2084      C2085   1.414       .  A
C2085      C2086   1.409       .  A
C2085      N2092   1.438       .  S
C2086      C2087   1.413       .  A
C2086      H2091   1.083       .  S
C2087      C2088   1.431       .  A
C2088      N2089   1.436       .  S
N2089      H2093   1.039       .  S
N2089      H2094   1.045       .  S
N2092      H2095   1.046       .  S
N2092      H2096   1.045       .  S
C2097      C2098   1.416       .  A
C2097      C2102   1.433       .  A
C2097      H2104   1.083       .  S
C2098      C2099   1.412       .  A
C2099      C2100   1.419       .  A
C2099      N2106   1.438       .  S
C2100      C2101   1.417       .  A
C2100      H2105   1.083       .  S
C2101      C2102   1.420       .  A
C2102      N2103   1.436       .  S
N2103      H2107   1.045       .  S
N2103      H2108   1.045       .  S
N2106      H2109   1.046       .  S
N2106      H2110   1.046       .  S
C2111      C2112   1.416       .  A
C2111      C2116   1.396       .  A
C2111      H2118   1.083       .  S
C2112      C2113   1.410       .  A
C2113      C2114   1.415       .  A
C2113      N2120   1.435       .  S
C2114      C2115   1.408       .  A
C2114      H2119   1.083       .  S
C2115      C2116   1.401       .  A
C2116      N2117   1.440       .  S
N2117      H2121   1.045       .  S
N2117      H2122   1.046       .  S
N2120      H2123   1.045       .  S
N2120      H2124   1.045       .  S
C2125      C2126   1.404       .  A
C2125      C2130   1.401       .  A
C2125      H2132   1.083       .  S
C2126      C2127   1.414       .  A
C2127      C2128   1.393       .  A
C2127      N2134   1.433       .  S
C2128      C2129   1.401       .  A
C2128      H2133   1.082       .  S
C2129      C2130   1.415       .  A
C2130      N2131   1.433       .  S
N2131      H2135   1.046       .  S
N2131      H2136   1.046       .  S
N2134      H2137   1.046       .  S
N2134      H2138   1.045       .  S
C2139      C2140   1.405       .  A
C2139      C2144   1.407       .  A
C2139      H2146   1.084       .  S
C2140      C2141   1.401       .  A
C2141      C2142   1.398       .  A
C2141      N2148   1.431       .  S
C2142      C2143   1.408       .  A
C2142      H2147   1.082       .  S
C2143      C2144   1.414       .  A
C2144      N2145   1.433       .  S
N2145      H2149   1.046       .  S
N2145      H2150   1.046       .  S
N2148      H2151   1.043       .  S
N2148      H2152   1.045       .  S
C2153      C2154   1.389       .  A
C2153      C2158   1.400       .  A
C2153      H2160   1.085       .  S
C2154      C2155   1.417       .  A
C2155      C2156   1.424       .  A
C2155      N2162   1.431       .  S
C2156      C2157   1.408       .  A
C2156      H2161   1.083       .  S
C2157      C2158   1.433       .  A
C2158      N2159   1.434       .  S
N2159      H2163   1.046       .  S
N2159      H2164   1.046       .  S
N2162      H2165   1.045       .  S
N2162      H2166   1.045       .  S
C2167      C2168   1.416       .  A
C2167      C2172   1.414       .  A
C2167      H2174   1.083       .  S
C2168      C2169   1.425       .  A
C2169      C2170   1.423       .  A
C2169      N2176   1.436       .  S
C2170      C2171   1.414       .  A
C2170      H2175   1.084       .  S
C2171      C2172   1.414       .  A
C2172      N2173   1.439       .  S
N2173      H2177   1.045       .  S
N2173      H2178   1.046       .  S
N2176      H2179   1.041       .  S
N2176      H2180   1.045       .  S
C2181      C2182   1.410       .  A
C2181      C2186   1.430       .  A
C2181      H2188   1.083       .  S
C2182      C2183   1.428       .  A
C2183      C2184   1.415       .  A
C2183      N2190   1.432       .  S
C2184      C2185   1.402       .  A
C2184      H2189   1.084       .  S
C2185      C2186   1.424       .  A
C2186      N2187   1.431       .  S
N2187      H2191   1.046       .  S
N2187      H2192   1.045       .  S
N2190      H2193   1.046       .  S
N2190      H2194   1.046       .  S
C2195      C2196   1.397       .  A
C2195      C2200   1.399       .  A
C2195      H2202   1.084       .  S
C2196      C2197   1.409       .  A
C2197      C2198   1.383       .  A
C2197      N2204   1.435       .  S
C2198      C2199   1.400       .  A
C2198      H2203   1.084       .  S
C2199      C2200   1.417       .  A
C2200      N2201   1.438       .  S
N2201      H2205   1.045       .  S
N2201      H2206   1.046       .  S
N2204      H2207   1.045       .  S
N2204      H2208   1.046       .  S
C2209      C2210   1.414       .  A
C2209      C2214   1.393       .  A
C2209      H2216   1.083       .  S
C2210      C2211   1.407       .  A
C2211      C2212   1.388       .  A
C2211      N2218   1.439       .  S
C2212      C2213   1.412       .  A
C2212      H2217   1.083       .  S
C2213      C2214   1.406       .  A
C2214      N2215   1.432       .  S
N2215      H2219   1.045       .  S
N2215      H2220   1.046       .  S
N2218      H2221   1.045       .  S
N2218      H2222   1.046       .  S
C2223      C2224   1.416       .  A
C2223      C2228   1.431       .  A
C2223      H2230   1.083       .  S
C2224      C2225   1.415       .  A
C2225      C2226   1.421       .  A
C2225      N2232   1.438       .  S
C2226      C2227   1.417       .  A
C2226      H2231   1.083       .  S
C2227      C2228   1.418       .  A
C2228      N2229   1.435       .  S
N2229      H2233   1.042       .  S
N2229      H2234   1.045       .  S
N2232      H2235   1.046       .  S
N2232      H2236   1.045       .  S
C2237      C2238   1.415       .  A
C2237      C2242   1.406       .  A
C2237      H2244   1.084       .  S
C2238      C2239   1.420       .  A
C2239      C2240   1.425       .  A
C2239      N2246   1.430       .  S
C2240      C2241   1.417       .  A
C2240      H2245   1.083       .  S
C2241      C2242   1.419       .  A
C2242      N2243   1.433       .  S
N2243      H2247   1.045       .  S
N2243      H2248   1.045       .  S
N2246      H2249   1.045       .  S
N2246      H2250   1.045       .  S
C2251      C2252   1.407       .  A
C2251      C2256   1.390       .  A
C2251      H2258   1.083       .  S
C2252      C2253   1.401       .  A
C2253      C2254   1.397       .  A
C2253      N2260   1.429       .  S
C2254      C2255   1.408       .  A
C2254      H2259   1.084       .  S
C2255      C2256   1.412       .  A
C2256      N2257   1.439       .  S
N2257      H2261   1.044       .  S
N2257      H2262   1.046       .  S
N2260      H2263   1.046       .  S
N2260      H2264   1.046       .  S
C2265      C2266   1.399       .  A
C2265      C2270   1.381       .  A
C2265      H2272   1.085       .  S
C2266      C2267   1.412       .  A
C2267      C2268   1.394       .  A
C2267      N2274   1.432       .  S
C2268      C2269   1.399       .  A
C2268      H2273   1.083       .  S
C2269      C2270   1.410       .  A
C2270      N2271   1.434       .  S
N2271      H2275   1.044       .  S
N2271      H2276   1.044       .  S
N2274      H2277   1.044       .  S
N2274      H2278   1.045       .  S
