geometry optimzed in LAMMPS
_audit_creation_date              2020-12-01 
_audit_creation_method            'lammps2cif' 
_symmetry_space_group_name_H-M    'P1' 
_symmetry_Int_Tables_number       1 
_symmetry_cell_setting            triclinic 
loop_ 
_symmetry_equiv_pos_as_xyz 
  x,y,z 
_cell_length_a                    34.34619711 
_cell_length_b                    35.10250868608537 
_cell_length_c                    34.85380584695996 
_cell_angle_alpha                 90.4166221867371 
_cell_angle_beta                  90.3586066948796 
_cell_angle_gamma                 90.36138265753772 
loop_ 
_atom_site_label 
_atom_site_type_symbol 
_atom_site_fract_x 
_atom_site_fract_y 
_atom_site_fract_z 
_atom_site_charge 
O1          O  0.05206611  0.09786556  0.27832346    -0.67400
O2          O  0.45490786  0.09590852  0.22224141    -0.67600
O3          O  0.02591379  0.10298504  0.20651826    -0.67500
O4          O  0.48054692  0.09030470  0.29495585    -0.67500
O5          O  0.47967931  0.15206924  0.30065240    -0.67400
O6          O  0.02946538  0.16468896  0.21203861    -0.67500
O7          O  0.45541431  0.15770550  0.22746285    -0.67400
O8          O  0.05093175  0.15948907  0.28537858    -0.67600
V9          V  0.00174798  0.10093536  0.25445149     1.35200
V10         V  0.50437016  0.15508249  0.25165603     1.35200
C11         C  0.06851300  0.12853142  0.28931825     0.81800
C12         C  0.43853036  0.12765328  0.21649427     0.81900
C13         C  0.03701471  0.13442630  0.19348261     0.81800
C14         C  0.47223181  0.11943391  0.31422460     0.81700
C15         C  0.40750601  0.08801085  0.40519263     0.01900
O16         O  0.22801884  0.04327860  0.40612358    -0.67400
O17         O  0.27163706  0.44763954  0.40116160    -0.67600
O18         O  0.30025373  0.01589101  0.40285096    -0.67500
O19         O  0.19875890  0.47407803  0.41079004    -0.67500
O20         O  0.19022162  0.47736276  0.34902645    -0.67400
O21         O  0.29753974  0.01632216  0.34048341    -0.67500
O22         O  0.26294445  0.45021698  0.33939094    -0.67400
O23         O  0.22502983  0.04252733  0.34374987    -0.67600
V24         V  0.25058433  0.99345492  0.40363538     1.35200
V25         V  0.24662183  0.99368552  0.34376653     1.35200
C26         C  0.21941032  0.05967852  0.37491560     0.81800
C27         C  0.27510194  0.43244606  0.36813104     0.81900
C28         C  0.31535783  0.02476675  0.37142783     0.81800
C29         C  0.17721458  0.46904737  0.38201296     0.81700
O30         O  0.20012412  0.02544633  0.15400692    -0.67400
O31         O  0.30434617  0.48637699  0.15562883    -0.67600
O32         O  0.27385317  0.05045533  0.15597547    -0.67500
O33         O  0.22908263  0.46439265  0.15733168    -0.67500
O34         O  0.22717009  0.46340481  0.09494673    -0.67400
O35         O  0.27307778  0.05358571  0.09370425    -0.67500
O36         O  0.30221076  0.48651738  0.09326886    -0.67400
O37         O  0.20016632  0.02544399  0.09162707    -0.67600
V38         V  0.25482591  0.51172474  0.15554693     1.35200
V39         V  0.25395451  0.51160336  0.09558520     1.35200
C40         C  0.18358317  0.03390825  0.12250881     0.81800
C41         C  0.31981524  0.47793423  0.12369895     0.81900
C42         C  0.28112164  0.06878108  0.12606760     0.81800
C43         C  0.21873083  0.44806483  0.12671340     0.81700
C44         C  0.34027142  0.16267981  0.16305620     0.01900
O45         O  0.40452747  0.27622201  0.44224389    -0.67400
O46         O  0.40074983  0.23198869  0.05214451    -0.67600
O47         O  0.40828990  0.20360426  0.46567174    -0.67500
O48         O  0.40286395  0.30371237  0.02507038    -0.67500
O49         O  0.33978841  0.30623057  0.02905481    -0.67400
O50         O  0.34495626  0.20162098  0.46610818    -0.67500
O51         O  0.33750123  0.23351844  0.05365672    -0.67400
O52         O  0.34130893  0.27516444  0.44604333    -0.67600
V53         V  0.39823018  0.25529723  0.00233125     1.35200
V54         V  0.33750599  0.25647254  0.00513377     1.35200
C55         C  0.37157495  0.28433498  0.42814732     0.81800
C56         C  0.36911553  0.22474287  0.06943804     0.81900
C57         C  0.37705338  0.18645102  0.45735041     0.81800
C58         C  0.37297228  0.32170397  0.03461613     0.81700
C59         C  0.33926887  0.34164593  0.33263765     0.01900
C60         C  0.41343271  0.41487577  0.09206881     0.01900
O61         O  0.02309104  0.34671382  0.30375966    -0.67400
O62         O  0.47894591  0.34462600  0.19978358    -0.67600
O63         O  0.04934779  0.34935792  0.23153121    -0.67500
O64         O  0.45285160  0.34388320  0.27177921    -0.67500
O65         O  0.45608353  0.40575892  0.27454618    -0.67400
O66         O  0.04836594  0.41131167  0.23285286    -0.67500
O67         O  0.48278444  0.40647126  0.20258377    -0.67400
O68         O  0.02212592  0.40866668  0.30523404    -0.67600
V69         V  0.50255793  0.34321354  0.24975964     1.35200
V70         V  0.50637179  0.40267220  0.25109960     1.35200
C71         C  0.03044937  0.37778675  0.32121497     0.81800
C72         C  0.47208740  0.37682077  0.18500270     0.81900
C73         C  0.06567184  0.38057737  0.22437648     0.81800
C74         C  0.43759883  0.37507283  0.28085446     0.81700
C75         C  0.17019622  0.15727936  0.34053682     0.01900
C76         C  0.08480393  0.40931230  0.41945801     0.01900
C77         C  0.15767795  0.35406538  0.15848552     0.01900
C78         C  0.09045912  0.10108574  0.09721629     0.01900
O79         O  0.15997155  0.30099148  0.47865450    -0.67400
O80         O  0.15749994  0.20823521  0.02983381    -0.67600
O81         O  0.16549047  0.22916443  0.45190273    -0.67500
O82         O  0.15603038  0.28047079  0.05603339    -0.67500
O83         O  0.09301505  0.28295452  0.04981105    -0.67400
O84         O  0.10246633  0.22671472  0.44554704    -0.67500
O85         O  0.09431960  0.20980275  0.02550735    -0.67400
O86         O  0.09683371  0.29755633  0.47438214    -0.67600
V87         V  0.15887769  0.25795813  0.00727570     1.35200
V88         V  0.09825609  0.25736509  0.00142957     1.35200
C89         C  0.12771852  0.31602360  0.46941477     0.81800
C90         C  0.12464366  0.19259504  0.03551314     0.81900
C91         C  0.13611126  0.22034426  0.43215993     0.81800
C92         C  0.12366153  0.29099232  0.06869269     0.81700
C93         C  0.46673823  0.48507675  0.02007246     0.90900
C94         C  0.49441633  0.46000984  0.99637993    -0.49400
C95         C  0.01716438  0.47517919  0.48406999     0.13800
C96         C  0.01906986  0.02266003  0.48288480     0.24700
C97         C  0.50200446  0.01596798  0.04759448    -0.50100
C98         C  0.02697851  0.03633553  0.02855575     0.13900
C99         C  0.44852893  0.51196079  0.99066867    -0.49600
C100        C  0.47625719  0.02820814  0.47283550     0.14500
H101        H  0.48713533  0.41955079  0.49756862     0.19000
H102        H  0.03815017  0.03973348  0.46386154     0.04700
H103        H  0.50160122  0.01885684  0.07857035     0.19300
H104        H  0.42048220  0.00727109  0.49318581     0.19100
C105        C  0.26579744  0.23196525  0.21515337     0.91900
C106        C  0.24133514  0.20719374  0.24221684    -0.49400
C107        C  0.21931385  0.22757078  0.26768117     0.13800
C108        C  0.22413122  0.27119803  0.26369685     0.24700
C109        C  0.23634264  0.25889163  0.19627735    -0.50100
C110        C  0.21488878  0.28010273  0.22146858     0.13900
C111        C  0.29015428  0.25815754  0.24196891    -0.49600
C112        C  0.26829463  0.27888966  0.26766937     0.14500
H113        H  0.24066493  0.17629963  0.24048094     0.19000
H114        H  0.20625303  0.28778979  0.28428106     0.04700
H115        H  0.23311691  0.26073628  0.16538022     0.19300
H116        H  0.32153151  0.26056007  0.23966310     0.19100
C117        C  0.12021369  0.15651453  0.05408511    -0.08900
C118        C  0.10843137  0.12938703  0.07178482    -0.10500
C119        C  0.05692181  0.07929896  0.07798061    -0.12100
C120        C  0.05927250  0.06101445  0.04385933    -0.27200
H121        H  0.02932040  0.07804692  0.09309566     0.17000
H122        H  0.08549664  0.06385334  0.02686237     0.17500
C123        C  0.13544888  0.33337296  0.12890727    -0.08900
C124        C  0.12373085  0.31372298  0.10279053    -0.10500
C125        C  0.18726297  0.32630410  0.17471766    -0.12100
C126        C  0.18636103  0.30996869  0.20973021    -0.27200
H127        H  0.20982575  0.31780026  0.15479364     0.17000
H128        H  0.16465105  0.31861095  0.23046950     0.17500
C129        C  0.10894648  0.38063378  0.43873644    -0.08900
C130        C  0.12397343  0.35320946  0.45322791    -0.10500
C131        C  0.05467622  0.42485741  0.44772625    -0.12100
C132        C  0.04901173  0.46188711  0.45757153    -0.27200
H133        H  0.03583665  0.40331485  0.45995998     0.17000
H134        H  0.06759638  0.48361724  0.44521166     0.17500
C135        C  0.15463637  0.18368434  0.36935274    -0.08900
C136        C  0.14242278  0.20194652  0.39603483    -0.10500
C137        C  0.19872679  0.17650305  0.31316783    -0.12100
C138        C  0.19149463  0.20977701  0.29520123    -0.27200
H139        H  0.22659159  0.16281412  0.30820865     0.17000
H140        H  0.16505137  0.22521118  0.30182861     0.17500
C141        C  0.12994411  0.36975874  0.18634847    -0.08900
C142        C  0.10252838  0.37947243  0.20545534    -0.10500
C143        C  0.04837125  0.37958347  0.35839899    -0.08900
C144        C  0.06415551  0.39028016  0.38759107    -0.10500
C145        C  0.43335442  0.39402596  0.12281254    -0.08900
C146        C  0.45117766  0.38129117  0.14968988    -0.10500
C147        C  0.43565705  0.46267829  0.04198246    -0.12100
C148        C  0.44415541  0.43743579  0.06973024    -0.27200
H149        H  0.40520062  0.46719460  0.03482370     0.17000
H150        H  0.47472791  0.43360328  0.07704932     0.17500
C151        C  0.37078240  0.36260863  0.31365775    -0.08900
C152        C  0.40010894  0.37391614  0.29853027    -0.10500
C153        C  0.32198174  0.31257801  0.30425421    -0.12100
C154        C  0.28382686  0.30822259  0.29547987    -0.27200
H155        H  0.34269144  0.29321814  0.29125512     0.17000
H156        H  0.26266805  0.32627206  0.30958420     0.17500
C157        C  0.37866799  0.35870313  0.05198911    -0.08900
C158        C  0.39275609  0.38635646  0.06795278    -0.10500
C159        C  0.36734916  0.30399988  0.39267446    -0.08900
C160        C  0.35658951  0.32084451  0.36463759    -0.10500
C161        C  0.35701957  0.18778829  0.13353013    -0.08900
C162        C  0.36730193  0.20572544  0.10581490    -0.10500
C163        C  0.28864427  0.20947964  0.18501224    -0.12100
C164        C  0.31765269  0.18513944  0.19351691    -0.27200
H165        H  0.28113993  0.21332260  0.15495547     0.17000
H166        H  0.32564039  0.18188935  0.22356819     0.17500
C167        C  0.17865026  0.38586996  0.14045231    -0.08900
C168        C  0.19693203  0.41320608  0.12958314    -0.10500
C169        C  0.35630434  0.45817657  0.12048984    -0.08900
C170        C  0.38410099  0.43999285  0.10978875    -0.10500
C171        C  0.12055418  0.07461873  0.11111420    -0.08900
C172        C  0.14764061  0.05466760  0.12027305    -0.10500
C173        C  0.29890692  0.10581761  0.13071204    -0.08900
C174        C  0.31570320  0.13356970  0.14365281    -0.10500
C175        C  0.31193605  0.36970052  0.34894193    -0.08900
C176        C  0.29385881  0.39646036  0.36154375    -0.10500
C177        C  0.11147599  0.43727135  0.40223613    -0.08900
C178        C  0.13905222  0.45368578  0.38854702    -0.10500
C179        C  0.20346040  0.09712782  0.37303645    -0.08900
C180        C  0.18934565  0.12606718  0.36100353    -0.10500
C181        C  0.37917641  0.15025849  0.43844759    -0.08900
C182        C  0.38886064  0.12100708  0.42309438    -0.10500
C183        C  0.37789204  0.06539872  0.38437818    -0.08900
C184        C  0.35106577  0.04605828  0.37275998    -0.10500
C185        C  0.46253899  0.05398905  0.44147654    -0.12100
C186        C  0.42465170  0.06348129  0.43679154    -0.27200
H187        H  0.48425010  0.06510944  0.42197647     0.17000
H188        H  0.40339631  0.05327774  0.45719488     0.17500
C189        C  0.40166002  0.13109544  0.19742027    -0.08900
C190        C  0.37273250  0.14278060  0.18173548    -0.10500
C191        C  0.13709926  0.14057284  0.31957809    -0.08900
C192        C  0.10684526  0.13000759  0.30533816    -0.10500
C193        C  0.05853042  0.13376486  0.15852396    -0.08900
C194        C  0.07486122  0.12195987  0.13037412    -0.10500
C195        C  0.43539762  0.10274425  0.37726994    -0.08900
C196        C  0.45376827  0.11409338  0.35034917    -0.10500
O197        O  0.06032822  0.09919574  0.78155600    -0.67400
O198        O  0.44782093  0.10064335  0.73013273    -0.67600
O199        O  0.03558832  0.09880009  0.70853660    -0.67500
O200        O  0.47312412  0.09887193  0.80349487    -0.67500
O201        O  0.47538056  0.16081084  0.80447734    -0.67400
O202        O  0.03386116  0.16074366  0.70952545    -0.67500
O203        O  0.45229306  0.16249586  0.73030129    -0.67400
O204        O  0.05665256  0.16104594  0.78325857    -0.67600
V205        V  0.01068185  0.09819374  0.75631239     1.35200
V206        V  0.50067482  0.15871693  0.75551391     1.35200
C207        C  0.07511500  0.13119583  0.79066043     0.81800
C208        C  0.43391045  0.13271260  0.72104784     0.81900
C209        C  0.04314392  0.12999749  0.69270302     0.81800
C210        C  0.46633479  0.12971889  0.82060530     0.81700
C211        C  0.40362296  0.09879080  0.91256957     0.01900
O212        O  0.23078295  0.04809064  0.91434995    -0.67400
O213        O  0.27330594  0.45919250  0.90775799    -0.67600
O214        O  0.30259047  0.02034241  0.90687766    -0.67500
O215        O  0.20115844  0.48742609  0.91394702    -0.67500
O216        O  0.19479489  0.48322861  0.85189854    -0.67400
O217        O  0.29735181  0.02586586  0.84491936    -0.67500
O218        O  0.26789796  0.45784659  0.84553767    -0.67400
O219        O  0.22481932  0.05079421  0.85222144    -0.67600
V220        V  0.25270830  0.99844288  0.90790231     1.35200
V221        V  0.24693845  0.00245777  0.84829704     1.35200
C222        C  0.22028847  0.06592046  0.88458888     0.81800
C223        C  0.27790092  0.44179506  0.87608742     0.81900
C224        C  0.31623112  0.03201824  0.87573471     0.81800
C225        C  0.18110358  0.47798176  0.88514084     0.81700
O226        O  0.20337339  0.02692253  0.65039426    -0.67400
O227        O  0.29441937  0.47149964  0.65295444    -0.67600
O228        O  0.27732060  0.05189435  0.65078801    -0.67500
O229        O  0.22023068  0.44772487  0.65107892    -0.67500
O230        O  0.22366277  0.44454529  0.58884242    -0.67400
O231        O  0.27757474  0.05217426  0.58837897    -0.67500
O232        O  0.29660245  0.47218676  0.59060787    -0.67400
O233        O  0.20369898  0.02673587  0.58797758    -0.67600
V234        V  0.24444693  0.49562058  0.64971920     1.35200
V235        V  0.24705023  0.49447103  0.58983104     1.35200
C236        C  0.18674704  0.03462502  0.61882300     0.81800
C237        C  0.31222404  0.46380368  0.62207210     0.81900
C238        C  0.28551499  0.06852818  0.62007686     0.81800
C239        C  0.21440516  0.42942480  0.62051984     0.81700
C240        C  0.34511674  0.16381582  0.65111244     0.01900
O241        O  0.39652145  0.27830739  0.95243446    -0.67400
O242        O  0.41017534  0.22646163  0.53927773    -0.67600
O243        O  0.39779886  0.20705128  0.97909570    -0.67500
O244        O  0.40781955  0.29884184  0.51580821    -0.67500
O245        O  0.34465118  0.29672443  0.52002377    -0.67400
O246        O  0.33452203  0.20700050  0.98069065    -0.67500
O247        O  0.34687361  0.22341345  0.53979303    -0.67400
O248        O  0.33339926  0.27929238  0.95687918    -0.67600
V249        V  0.40649874  0.25124800  0.49072683     1.35200
V250        V  0.34567780  0.24928557  0.49288034     1.35200
C251        C  0.36353742  0.28631727  0.93801641     0.81800
C252        C  0.37898245  0.21654523  0.55570052     0.81900
C253        C  0.36610407  0.19085913  0.97112820     0.81800
C254        C  0.37661304  0.31353472  0.52716559     0.81700
C255        C  0.32820504  0.34306882  0.84308605     0.01900
C256        C  0.40759822  0.40218829  0.59504151     0.01900
O257        O  0.03308423  0.34365472  0.80833472    -0.67400
O258        O  0.47001759  0.33784538  0.70777257    -0.67600
O259        O  0.05789870  0.33651917  0.73561027    -0.67500
O260        O  0.44445777  0.33894246  0.78008158    -0.67500
O261        O  0.44406598  0.40089901  0.77882404    -0.67400
O262        O  0.06213661  0.39820445  0.73126327    -0.67500
O263        O  0.47186177  0.39981676  0.70734028    -0.67400
O264        O  0.03606110  0.40536659  0.80338572    -0.67600
V265        V  0.49402351  0.33972003  0.75745976     1.35200
V266        V  0.49475948  0.39927701  0.75635720     1.35200
C267        C  0.04198056  0.37585449  0.82265040     0.81800
C268        C  0.46264526  0.36895407  0.69111422     0.81900
C269        C  0.07665043  0.36557622  0.72549441     0.81800
C270        C  0.42723059  0.36974883  0.78678947     0.81700
C271        C  0.17184830  0.16204844  0.85052087     0.01900
C272        C  0.09037643  0.41461146  0.92100206     0.01900
C273        C  0.16469807  0.33208691  0.65735258     0.01900
C274        C  0.09069761  0.09608624  0.59328160     0.01900
O275        O  0.16146151  0.30772535  0.98510480    -0.67400
O276        O  0.15897398  0.20097571  0.52328465    -0.67600
O277        O  0.16527865  0.23596028  0.95860526    -0.67500
O278        O  0.15677856  0.27247938  0.54966076    -0.67500
O279        O  0.09351343  0.27104493  0.54619813    -0.67400
O280        O  0.10223831  0.23250731  0.95261314    -0.67500
O281        O  0.09590377  0.20028901  0.51714074    -0.67400
O282        O  0.09860562  0.30470482  0.97722603    -0.67600
V283        V  0.15910893  0.25084070  0.50068777     1.35200
V284        V  0.09842691  0.24894689  0.49582951     1.35200
C285        C  0.12998972  0.32281209  0.97388049     0.81800
C286        C  0.12644595  0.18432246  0.52822785     0.81900
C287        C  0.13585363  0.22651107  0.93916510     0.81800
C288        C  0.12446731  0.27904644  0.56473969     0.81700
C289        C  0.45933838  0.47269315  0.52418386     0.90900
C290        C  0.48845898  0.45032979  0.49971161    -0.49400
C291        C  0.02375892  0.48538125  0.97996679     0.13800
C292        C  0.02049658  0.02843671  0.98533848     0.24700
C293        C  0.49953571  0.00877557  0.54717299    -0.50100
C294        C  0.02658700  0.03026598  0.52602347     0.13900
C295        C  0.44161090  0.50158042  0.49665502    -0.49600
C296        C  0.47560117  0.03545738  0.97429329     0.14500
H297        H  0.49229167  0.42920505  0.99650429     0.19000
H298        H  0.03974092  0.04566589  0.96661566     0.04700
H299        H  0.49760872  0.01147918  0.57809881     0.19300
H300        H  0.42066776  0.01520088  0.99730931     0.19100
C301        C  0.27549386  0.21454707  0.72426471     0.91900
C302        C  0.24828344  0.19705870  0.75407928    -0.49400
C303        C  0.23008551  0.22306326  0.77703106     0.13800
C304        C  0.24132475  0.26476206  0.76805949     0.24700
C305        C  0.24983005  0.24265665  0.70201355    -0.50100
C306        C  0.23161723  0.26918246  0.72478150     0.13900
C307        C  0.30382113  0.23938774  0.74764414    -0.49600
C308        C  0.28658077  0.26575605  0.77088391     0.14500
H309        H  0.24279880  0.16661547  0.75587645     0.19000
H310        H  0.22641216  0.28571710  0.78677192     0.04700
H311        H  0.24570208  0.24039749  0.67122632     0.19300
H312        H  0.33519345  0.23575348  0.74644640     0.19100
C313        C  0.12204551  0.14902145  0.54805482    -0.08900
C314        C  0.10886674  0.12340294  0.56697722    -0.10500
C315        C  0.05712014  0.07367619  0.57479210    -0.12100
C316        C  0.05919473  0.05483879  0.54090735    -0.27200
H317        H  0.02965076  0.07270029  0.59014619     0.17000
H318        H  0.08527824  0.05739440  0.52365954     0.17500
C319        C  0.13975242  0.31158379  0.62966927    -0.08900
C320        C  0.12529853  0.29610330  0.60203495    -0.10500
C321        C  0.19564338  0.30500341  0.67305701    -0.12100
C322        C  0.20235621  0.29753705  0.71065987    -0.27200
H323        H  0.21352718  0.29116120  0.65159903     0.17000
H324        H  0.18569439  0.31239937  0.73238279     0.17500
C325        C  0.11386624  0.38725316  0.94238188    -0.08900
C326        C  0.12784480  0.35986649  0.95762507    -0.10500
C327        C  0.05935375  0.43161040  0.94720475    -0.12100
C328        C  0.05452408  0.46923794  0.95434437    -0.27200
H329        H  0.03970302  0.41127772  0.96032636     0.17000
H330        H  0.07350653  0.48968864  0.94049877     0.17500
C331        C  0.15471189  0.18945852  0.87712290    -0.08900
C332        C  0.14201588  0.20799508  0.90325332    -0.10500
C333        C  0.20365417  0.17918328  0.82574291    -0.12100
C334        C  0.20005912  0.21159820  0.80545382    -0.27200
H335        H  0.23082117  0.16354685  0.82339497     0.17000
H336        H  0.17457810  0.22938959  0.80900179     0.17500
C337        C  0.13904534  0.34890350  0.68638444    -0.08900
C338        C  0.11282212  0.36025397  0.70612309    -0.10500
C339        C  0.05797811  0.38049824  0.86028498    -0.08900
C340        C  0.07155057  0.39367805  0.88943740    -0.10500
C341        C  0.42664715  0.38194553  0.62657702    -0.08900
C342        C  0.44322406  0.37078328  0.65483692    -0.10500
C343        C  0.42886400  0.44839185  0.54405885    -0.12100
C344        C  0.43790774  0.42511923  0.57333540    -0.27200
H345        H  0.39851107  0.45115995  0.53558540     0.17000
H346        H  0.46830469  0.42308762  0.58206109     0.17500
C347        C  0.35991968  0.35891245  0.81990764    -0.08900
C348        C  0.38942191  0.36805191  0.80374088    -0.10500
C349        C  0.29963982  0.31969061  0.81829579    -0.12100
C350        C  0.31161432  0.28987514  0.79685979    -0.27200
H351        H  0.26919857  0.32783082  0.81740450     0.17000
H352        H  0.34242521  0.28297088  0.79784952     0.17500
C353        C  0.37890125  0.34784032  0.54929027    -0.08900
C354        C  0.38930118  0.37392016  0.56952811    -0.10500
C355        C  0.35860544  0.30367736  0.90123859    -0.08900
C356        C  0.34602575  0.31988067  0.87340413    -0.10500
C357        C  0.36698114  0.18212738  0.62028827    -0.08900
C358        C  0.37837972  0.19775308  0.59184166    -0.10500
C359        C  0.29574257  0.18450149  0.70010661    -0.12100
C360        C  0.32044976  0.19343382  0.67164729    -0.27200
H361        H  0.29155135  0.15467348  0.70726196     0.17000
H362        H  0.32395932  0.22331077  0.66419379     0.17500
C363        C  0.18365061  0.36338303  0.63665039    -0.08900
C364        C  0.19780268  0.39207010  0.62371811    -0.10500
C365        C  0.34898173  0.44467078  0.62105860    -0.08900
C366        C  0.37718023  0.42665958  0.61146560    -0.10500
C367        C  0.12115813  0.07053292  0.60734556    -0.08900
C368        C  0.14967345  0.05288528  0.61658539    -0.10500
C369        C  0.30416491  0.10506421  0.62278251    -0.08900
C370        C  0.32129481  0.13328159  0.63365212    -0.10500
C371        C  0.30848331  0.37520938  0.86173628    -0.08900
C372        C  0.29434734  0.40451370  0.87316750    -0.10500
C373        C  0.11727963  0.44215313  0.90384290    -0.08900
C374        C  0.14421290  0.46027389  0.89148046    -0.10500
C375        C  0.20307435  0.10267742  0.88551557    -0.08900
C376        C  0.18837849  0.13118232  0.87337274    -0.10500
C377        C  0.36818511  0.15541858  0.95035040    -0.08900
C378        C  0.38144770  0.12876783  0.93261056    -0.10500
C379        C  0.37621689  0.07510347  0.89027281    -0.08900
C380        C  0.35096268  0.05456627  0.87753448    -0.10500
C381        C  0.46059387  0.06300299  0.94481370    -0.12100
C382        C  0.42261400  0.07327896  0.94252599    -0.27200
H383        H  0.48134527  0.07467508  0.92464226     0.17000
H384        H  0.40227254  0.06187740  0.96317006     0.17500
C385        C  0.39892579  0.13647926  0.69889907    -0.08900
C386        C  0.37304486  0.14684424  0.67799192    -0.10500
C387        C  0.14059278  0.14572132  0.82667938    -0.08900
C388        C  0.11201617  0.13498911  0.80947092    -0.10500
C389        C  0.06165611  0.12879714  0.65602945    -0.08900
C390        C  0.07579628  0.11736401  0.62655174    -0.10500
C391        C  0.43036541  0.11690884  0.88519019    -0.08900
C392        C  0.44809364  0.12777755  0.85747225    -0.10500
O393        O  0.04534469  0.59341619  0.27325376    -0.67400
O394        O  0.45191606  0.60304366  0.22899888    -0.67600
O395        O  0.02000884  0.59954740  0.20064164    -0.67500
O396        O  0.47759905  0.59383116  0.30164425    -0.67500
O397        O  0.48065794  0.65537275  0.30884448    -0.67400
O398        O  0.02118654  0.66130032  0.20600967    -0.67500
O399        O  0.45663068  0.66455546  0.23572810    -0.67400
O400        O  0.04507619  0.65517652  0.27894575    -0.67600
V401        V  0.99541960  0.59670390  0.24862523     1.35200
V402        V  0.50530474  0.65804750  0.25950907     1.35200
C403        C  0.06183399  0.62399346  0.28441380     0.81800
C404        C  0.43797097  0.63600106  0.22363026     0.81900
C405        C  0.02959010  0.63137030  0.18721826     0.81800
C406        C  0.47110853  0.62289669  0.32174508     0.81700
C407        C  0.40367503  0.58943515  0.41034402     0.01900
O408        O  0.22392371  0.54632616  0.40983332    -0.67400
O409        O  0.27361729  0.94370919  0.40228365    -0.67600
O410        O  0.29681073  0.52039097  0.40364535    -0.67500
O411        O  0.20080215  0.97160546  0.40812241    -0.67500
O412        O  0.19521363  0.97203970  0.34592910    -0.67400
O413        O  0.29280263  0.52174324  0.34137807    -0.67500
O414        O  0.26828596  0.94467367  0.34009330    -0.67400
O415        O  0.22023556  0.54767202  0.34752471    -0.67600
V416        V  0.24771972  0.49701906  0.40515025     1.35200
V417        V  0.24172946  0.49903994  0.34551130     1.35200
C418        C  0.21426930  0.56345788  0.37926930     0.81800
C419        C  0.27887332  0.92768816  0.36996787     0.81900
C420        C  0.31135361  0.52966911  0.37212969     0.81800
C421        C  0.18062303  0.96530001  0.37856280     0.81700
O422        O  0.20541695  0.53708040  0.15663873    -0.67400
O423        O  0.30141857  0.97898522  0.15199539    -0.67600
O424        O  0.28025313  0.55921319  0.15743761    -0.67500
O425        O  0.22736962  0.95342193  0.15326926    -0.67500
O426        O  0.22658978  0.95313209  0.09090346    -0.67400
O427        O  0.28021465  0.56001534  0.09503872    -0.67500
O428        O  0.29969878  0.98163038  0.08971057    -0.67400
O429        O  0.20579335  0.53667688  0.09423931    -0.67600
V430        V  0.25064186  0.00201495  0.15257032     1.35200
V431        V  0.24988064  0.00335570  0.09267183     1.35200
C432        C  0.18913847  0.54541349  0.12502560     0.81800
C433        C  0.31761642  0.97285372  0.11986132     0.81900
C434        C  0.28852937  0.57600248  0.12683584     0.81800
C435        C  0.21919398  0.93650673  0.12237605     0.81700
C436        C  0.34775544  0.67200688  0.15707328     0.01900
O437        O  0.40440160  0.77174827  0.45527165    -0.67400
O438        O  0.41174333  0.73146387  0.04315397    -0.67600
O439        O  0.40208799  0.69917018  0.47873352    -0.67500
O440        O  0.41020796  0.80394359  0.02009776    -0.67500
O441        O  0.34689606  0.80287086  0.02210499    -0.67400
O442        O  0.33877734  0.69983501  0.47694103    -0.67500
O443        O  0.34839662  0.72966978  0.04320876    -0.67400
O444        O  0.34108843  0.77259029  0.45413312    -0.67600
V445        V  0.40906903  0.75656072  0.99476030     1.35200
V446        V  0.34819543  0.75487731  0.99580633     1.35200
C447        C  0.37292556  0.78065271  0.43845445     0.81800
C448        C  0.38024790  0.72245424  0.05950819     0.81900
C449        C  0.37057095  0.68354981  0.46879360     0.81800
C450        C  0.37886910  0.81949707  0.02975923     0.81700
C451        C  0.34495037  0.83629941  0.34051348     0.01900
C452        C  0.41341053  0.91312919  0.08792313     0.01900
O453        O  0.02702915  0.83955536  0.29960673    -0.67400
O454        O  0.47939707  0.84532875  0.19680289    -0.67600
O455        O  0.05452346  0.83799979  0.22742574    -0.67500
O456        O  0.45368113  0.84211504  0.26930839    -0.67500
O457        O  0.45553332  0.90390413  0.27430504    -0.67400
O458        O  0.05695976  0.89991174  0.22647109    -0.67500
O459        O  0.48082214  0.90716052  0.20136439    -0.67400
O460        O  0.02948325  0.90149625  0.29849749    -0.67600
V461        V  0.50310559  0.84338643  0.24679098     1.35200
V462        V  0.50529952  0.90286780  0.24939230     1.35200
C463        C  0.03539079  0.87098104  0.31597576     0.81800
C464        C  0.47169059  0.87767982  0.18272002     0.81900
C465        C  0.07255255  0.86800289  0.21903563     0.81800
C466        C  0.43832082  0.87248525  0.28067291     0.81700
C467        C  0.15919334  0.65529471  0.34128528     0.01900
C468        C  0.08543919  0.90829442  0.41347599     0.01900
C469        C  0.16531224  0.83782703  0.15390224     0.01900
C470        C  0.09020639  0.60025549  0.09389547     0.01900
O471        O  0.15688005  0.80068563  0.47425170    -0.67400
O472        O  0.15473447  0.70180631  0.01576609    -0.67600
O473        O  0.15879184  0.72853654  0.44884733    -0.67500
O474        O  0.15780350  0.77338340  0.04243974    -0.67500
O475        O  0.09452580  0.77544366  0.04240560    -0.67400
O476        O  0.09546540  0.72702753  0.44635834    -0.67500
O477        O  0.09149439  0.70418149  0.01385443    -0.67400
O478        O  0.09352088  0.79868018  0.47272756    -0.67600
V479        V  0.15592319  0.75164669  0.99319577     1.35200
V480        V  0.09509400  0.75274322  0.99198401     1.35200
C481        C  0.12471974  0.81616462  0.46613023     0.81800
C482        C  0.12189127  0.68689541  0.02334460     0.81900
C483        C  0.12799513  0.72008978  0.43101279     0.81800
C484        C  0.12684453  0.78231622  0.05906153     0.81700
C485        C  0.47378577  0.98899881  0.02636906     0.90900
C486        C  0.50015675  0.96388519  0.00090708    -0.49400
C487        C  0.02394302  0.97926446  0.47773539     0.13800
C488        C  0.01016662  0.51801169  0.49293082     0.24700
C489        C  0.49380099  0.51079831  0.04475497    -0.50100
C490        C  0.02174423  0.53870907  0.02548637     0.13900
C491        C  0.45217620  0.01449332  0.99797135    -0.49600
C492        C  0.46807389  0.52461228  0.47856744     0.14500
H493        H  0.49993161  0.92623445  0.50060280     0.19000
H494        H  0.03144011  0.53716267  0.47881250     0.04700
H495        H  0.49265548  0.51156013  0.07586093     0.19300
H496        H  0.41052325  0.50215347  0.49146710     0.19100
C497        C  0.27376719  0.72115606  0.22820979     0.91900
C498        C  0.24684642  0.70057411  0.25620623    -0.49400
C499        C  0.22376688  0.72383416  0.27771892     0.13800
C500        C  0.23042752  0.76655035  0.26902775     0.24700
C501        C  0.24653224  0.74629975  0.20394426    -0.50100
C502        C  0.22392539  0.77069193  0.22522314     0.13900
C503        C  0.29718210  0.74931743  0.25343468    -0.49600
C504        C  0.27458268  0.77327004  0.27520048     0.14500
H505        H  0.24719543  0.66987307  0.25883621     0.19000
H506        H  0.21196998  0.78580274  0.28651850     0.04700
H507        H  0.24542928  0.74452369  0.17288357     0.19300
H508        H  0.32873400  0.74989163  0.25348645     0.19100
C509        C  0.11747464  0.65238545  0.04480474    -0.08900
C510        C  0.10608479  0.62746149  0.06579398    -0.10500
C511        C  0.06230907  0.57044291  0.07686906    -0.12100
C512        C  0.05042736  0.56798404  0.03976414    -0.27200
H513        H  0.05119620  0.54979252  0.09715091     0.17000
H514        H  0.06232627  0.58742263  0.01875588     0.17500
C515        C  0.14353288  0.81747929  0.12344741    -0.08900
C516        C  0.13031980  0.80102316  0.09566382    -0.10500
C517        C  0.19466737  0.81012483  0.17182907    -0.12100
C518        C  0.19537938  0.79880228  0.20901436    -0.27200
H519        H  0.21619445  0.79853555  0.15236373     0.17000
H520        H  0.17476804  0.81095492  0.22904463     0.17500
C521        C  0.10826817  0.88037816  0.43446090    -0.08900
C522        C  0.12189884  0.85286404  0.44954843    -0.10500
C523        C  0.05552827  0.92587027  0.44059478    -0.12100
C524        C  0.05277938  0.96326511  0.44976088    -0.27200
H525        H  0.03531879  0.90589106  0.45345668     0.17000
H526        H  0.07236657  0.98345230  0.43632369     0.17500
C527        C  0.14208185  0.68294631  0.36776769    -0.08900
C528        C  0.13128834  0.70166333  0.39462566    -0.10500
C529        C  0.18709937  0.67217633  0.31205323    -0.12100
C530        C  0.19591948  0.70965568  0.30751197    -0.27200
H531        H  0.19983349  0.65126257  0.29298311     0.17000
H532        H  0.18226368  0.73083513  0.32571378     0.17500
C533        C  0.13660099  0.85366822  0.18096179    -0.08900
C534        C  0.10926348  0.86430533  0.19984431    -0.10500
C535        C  0.05130219  0.87400779  0.35375077    -0.08900
C536        C  0.06545155  0.88748061  0.38250565    -0.10500
C537        C  0.43489151  0.89473122  0.11919457    -0.08900
C538        C  0.45207329  0.88248708  0.14671855    -0.10500
C539        C  0.44521601  0.96988713  0.05401118    -0.12100
C540        C  0.44261463  0.93211190  0.06094853    -0.27200
H541        H  0.42588508  0.98900813  0.06926162     0.17000
H542        H  0.46286357  0.91296726  0.04714017     0.17500
C543        C  0.37572400  0.85702332  0.31998474    -0.08900
C544        C  0.40284215  0.86940955  0.30192319    -0.10500
C545        C  0.32762324  0.80628520  0.31324028    -0.12100
C546        C  0.28983289  0.80336477  0.30228385    -0.27200
H547        H  0.34819227  0.78560333  0.30230895     0.17000
H548        H  0.26879908  0.82320799  0.31388481     0.17500
C549        C  0.38113407  0.85520898  0.04955120    -0.08900
C550        C  0.39273019  0.88304463  0.06657997    -0.10500
C551        C  0.37185684  0.80010256  0.40236831    -0.08900
C552        C  0.36243207  0.81668206  0.37353490    -0.10500
C553        C  0.36862113  0.68997269  0.12542172    -0.08900
C554        C  0.37923908  0.70463178  0.09616779    -0.10500
C555        C  0.29837631  0.69251831  0.20606097    -0.12100
C556        C  0.32304072  0.70177704  0.17772644    -0.27200
H557        H  0.29598635  0.66260400  0.21362353     0.17000
H558        H  0.32520360  0.73150621  0.16934459     0.17500
C559        C  0.18606556  0.87018028  0.13606012    -0.08900
C560        C  0.20146815  0.89922583  0.12491136    -0.10500
C561        C  0.35522478  0.95532865  0.11598767    -0.08900
C562        C  0.38372449  0.93845269  0.10488576    -0.10500
C563        C  0.12333190  0.58068059  0.11188361    -0.08900
C564        C  0.15246100  0.56465793  0.12252113    -0.10500
C565        C  0.30717653  0.61253935  0.12972141    -0.08900
C566        C  0.32390431  0.64109416  0.14031063    -0.10500
C567        C  0.31717904  0.86465165  0.35538691    -0.08900
C568        C  0.29815448  0.89167474  0.36573165    -0.10500
C569        C  0.11338904  0.93469403  0.39580015    -0.08900
C570        C  0.14207603  0.95034588  0.38355784    -0.10500
C571        C  0.19599903  0.59988380  0.37829252    -0.08900
C572        C  0.17972011  0.62693740  0.36453974    -0.10500
C573        C  0.37258055  0.64845536  0.44764313    -0.08900
C574        C  0.38385651  0.62101493  0.42994370    -0.10500
C575        C  0.37465397  0.56840861  0.38685063    -0.08900
C576        C  0.34754590  0.55038469  0.37355933    -0.10500
C577        C  0.45685437  0.55304965  0.44824327    -0.12100
C578        C  0.41923820  0.56270840  0.44114722    -0.27200
H579        H  0.47996747  0.56569281  0.43140434     0.17000
H580        H  0.39660725  0.55116900  0.45926087     0.17500
C581        C  0.40260545  0.64248209  0.20264881    -0.08900
C582        C  0.37641970  0.65486571  0.18321684    -0.10500
C583        C  0.12738257  0.63588615  0.32060215    -0.08900
C584        C  0.09872354  0.62498995  0.30358514    -0.10500
C585        C  0.05087143  0.63167154  0.15177808    -0.08900
C586        C  0.06924101  0.62130593  0.12411322    -0.10500
C587        C  0.43293079  0.60575482  0.38431568    -0.08900
C588        C  0.45213952  0.61757156  0.35795152    -0.10500
O589        O  0.04945913  0.59264373  0.76789626    -0.67400
O590        O  0.45366383  0.59040230  0.72036819    -0.67600
O591        O  0.02188271  0.59134653  0.69531708    -0.67500
O592        O  0.48325893  0.59181247  0.79196376    -0.67500
O593        O  0.48150444  0.65372789  0.79133722    -0.67400
O594        O  0.02130267  0.65327891  0.69451313    -0.67500
O595        O  0.45449627  0.65232062  0.71882338    -0.67400
O596        O  0.04835369  0.65458217  0.76701021    -0.67600
V597        V  0.99883719  0.59274335  0.74409737     1.35200
V598        V  0.50438174  0.65199882  0.74115571     1.35200
C599        C  0.06557452  0.62441962  0.77575896     0.81800
C600        C  0.43685468  0.62149548  0.71229642     0.81900
C601        C  0.02943976  0.62186682  0.67821914     0.81800
C602        C  0.47495418  0.62256143  0.80849281     0.81700
C603        C  0.41042255  0.59701931  0.90163157     0.01900
O604        O  0.22796027  0.55877711  0.90775146    -0.67400
O605        O  0.27476425  0.94867895  0.90276302    -0.67600
O606        O  0.30043194  0.53117860  0.90376948    -0.67500
O607        O  0.20286716  0.97696330  0.91247188    -0.67500
O608        O  0.19599360  0.98023362  0.85047401    -0.67400
O609        O  0.29533715  0.52973787  0.84152194    -0.67500
O610        O  0.26877555  0.95403122  0.84085905    -0.67400
O611        O  0.22206626  0.55424927  0.84567241    -0.67600
V612        V  0.25069543  0.50904951  0.90712451     1.35200
V613        V  0.24519498  0.50627074  0.84737918     1.35200
C614        C  0.21705031  0.57282610  0.87608669     0.81800
C615        C  0.27917901  0.93484202  0.86937507     0.81900
C616        C  0.31446344  0.53875834  0.87148962     0.81800
C617        C  0.18216246  0.97201747  0.88302651     0.81700
O618        O  0.19448682  0.51989695  0.64753790    -0.67400
O619        O  0.30399275  0.98007867  0.64933147    -0.67600
O620        O  0.26867173  0.54346322  0.65224911    -0.67500
O621        O  0.22978087  0.95535241  0.65130009    -0.67500
O622        O  0.22722715  0.95426883  0.58892281    -0.67400
O623        O  0.27084903  0.54421808  0.58989719    -0.67500
O624        O  0.30151102  0.97939074  0.58696055    -0.67400
O625        O  0.19760855  0.51678780  0.58529372    -0.67600
V626        V  0.25365624  0.00354646  0.64923419     1.35200
V627        V  0.25260003  0.00312818  0.58925842     1.35200
C628        C  0.17949970  0.52665157  0.61491454     0.81800
C629        C  0.31947703  0.97170578  0.61743323     0.81900
C630        C  0.27802483  0.56021343  0.62199471     0.81800
C631        C  0.21962642  0.93873419  0.62078299     0.81700
C632        C  0.33609427  0.65309559  0.66085883     0.01900
O633        O  0.40814144  0.78185307  0.94648590    -0.67400
O634        O  0.40022520  0.72168069  0.55267823    -0.67600
O635        O  0.41115123  0.70932739  0.96914723    -0.67500
O636        O  0.40474924  0.79399807  0.52891403    -0.67500
O637        O  0.34153876  0.79747959  0.52704302    -0.67400
O638        O  0.34782461  0.70698443  0.96928918    -0.67500
O639        O  0.33703133  0.72482745  0.55034736    -0.67400
O640        O  0.34483406  0.78008797  0.94855426    -0.67600
V641        V  0.40161870  0.74663094  0.50390468     1.35200
V642        V  0.34081330  0.74857757  0.50221165     1.35200
C643        C  0.37550602  0.78948466  0.93145897     0.81800
C644        C  0.36744246  0.71520133  0.56794517     0.81900
C645        C  0.38007294  0.69242480  0.95992019     0.81800
C646        C  0.37420492  0.81206516  0.53612612     0.81700
C647        C  0.34365772  0.84479198  0.83501516     0.01900
C648        C  0.41305184  0.90780779  0.58831248     0.01900
O649        O  0.02453919  0.84885396  0.80292008    -0.67400
O650        O  0.48108935  0.84750149  0.69975368    -0.67600
O651        O  0.05180435  0.84415537  0.73085431    -0.67500
O652        O  0.45464470  0.84836744  0.77169232    -0.67500
O653        O  0.45718092  0.91032056  0.77330345    -0.67400
O654        O  0.05361796  0.90590101  0.72616333    -0.67500
O655        O  0.48343772  0.90945191  0.70100827    -0.67400
O656        O  0.02804707  0.91060062  0.79882797    -0.67600
V657        V  0.50434317  0.84777838  0.74983861     1.35200
V658        V  0.50724364  0.90729631  0.74965437     1.35200
C659        C  0.03380467  0.88077095  0.81767408     0.81800
C660        C  0.47379589  0.87911296  0.68399587     0.81900
C661        C  0.06935114  0.87380126  0.72037153     0.81800
C662        C  0.43924388  0.87956122  0.78045498     0.81700
C663        C  0.16053208  0.66183921  0.83384240     0.01900
C664        C  0.08720965  0.91398289  0.91614210     0.01900
C665        C  0.16056363  0.84402841  0.65325089     0.01900
C666        C  0.08778483  0.59167758  0.58159322     0.01900
O667        O  0.15805617  0.80174229  0.97144014    -0.67400
O668        O  0.15648500  0.70253177  0.52110319    -0.67600
O669        O  0.15798072  0.73013135  0.94372147    -0.67500
O670        O  0.15631065  0.77505365  0.54600577    -0.67500
O671        O  0.09294300  0.77508980  0.54505695    -0.67400
O672        O  0.09470630  0.73056298  0.94130339    -0.67500
O673        O  0.09314694  0.70281038  0.51908274    -0.67400
O674        O  0.09470946  0.80135524  0.97054190    -0.67600
V675        V  0.15590640  0.75159087  0.49750524     1.35200
V676        V  0.09500439  0.75081373  0.49583828     1.35200
C677        C  0.12617314  0.81837683  0.96418834     0.81800
C678        C  0.12423858  0.68638816  0.52811067     0.81900
C679        C  0.12705950  0.72340739  0.92540952     0.81800
C680        C  0.12471026  0.78384417  0.56161090     0.81700
C681        C  0.47259616  0.98180094  0.52464522     0.90900
C682        C  0.50014686  0.95700767  0.50010255    -0.49400
C683        C  0.02610447  0.98510294  0.98053256     0.13800
C684        C  0.01690322  0.52872747  0.98250039     0.24700
C685        C  0.48429248  0.49630797  0.55200345    -0.50100
C686        C  0.01018734  0.52084548  0.53757202     0.13900
C687        C  0.45193970  0.00715886  0.49551304    -0.49600
C688        C  0.47468477  0.53255404  0.96957163     0.14500
H689        H  0.50007843  0.93316013  0.00186005     0.19000
H690        H  0.03636178  0.54556599  0.96362955     0.04700
H691        H  0.48109971  0.49466983  0.58295577     0.19300
H692        H  0.41728515  0.51313618  0.98660345     0.19100
C693        C  0.27544914  0.73139173  0.71997757     0.91900
C694        C  0.24958758  0.70794375  0.74748082    -0.49400
C695        C  0.22614201  0.72985686  0.77066308     0.13800
C696        C  0.23114859  0.77296802  0.76406208     0.24700
C697        C  0.24659268  0.75664165  0.69808565    -0.50100
C698        C  0.22344510  0.77877445  0.72098288     0.13900
C699        C  0.29795006  0.75921126  0.74634206    -0.49600
C700        C  0.27490095  0.78104790  0.76967476     0.14500
H701        H  0.24982791  0.67718930  0.74848986     0.19000
H702        H  0.21236650  0.79079228  0.78272572     0.04700
H703        H  0.24506352  0.75646709  0.66701371     0.19300
H704        H  0.32941018  0.76162025  0.74545872     0.19100
C705        C  0.12133060  0.65033262  0.54661590    -0.08900
C706        C  0.10905370  0.62237379  0.56240693    -0.10500
C707        C  0.06159430  0.57082921  0.55249006    -0.12100
C708        C  0.03733816  0.54274976  0.56328164    -0.27200
H709        H  0.06208715  0.57926264  0.52256046     0.17000
H710        H  0.03682645  0.53561503  0.59359553     0.17500
C711        C  0.13856601  0.82317070  0.62366592    -0.08900
C712        C  0.12652702  0.80479157  0.59679358    -0.10500
C713        C  0.19072893  0.81702466  0.66981388    -0.12100
C714        C  0.19348437  0.80612368  0.70682032    -0.27200
H715        H  0.21142278  0.80592492  0.64924128     0.17000
H716        H  0.17367715  0.81785955  0.72787773     0.17500
C717        C  0.10966454  0.88421143  0.93534152    -0.08900
C718        C  0.12359067  0.85589260  0.94891585    -0.10500
C719        C  0.05819358  0.93148529  0.94418752    -0.12100
C720        C  0.05536692  0.96900142  0.95312011    -0.27200
H721        H  0.03799201  0.91148072  0.95697455     0.17000
H722        H  0.07473747  0.98923989  0.93946805     0.17500
C723        C  0.14210617  0.68951091  0.86003787    -0.08900
C724        C  0.13036754  0.70685987  0.88771553    -0.10500
C725        C  0.18910821  0.67804653  0.80464565    -0.12100
C726        C  0.19804416  0.71524386  0.80001764    -0.27200
H727        H  0.20278611  0.65715007  0.78611772     0.17000
H728        H  0.18388576  0.73632585  0.81796232     0.17500
C729        C  0.13255344  0.85953866  0.68103636    -0.08900
C730        C  0.10556417  0.86968611  0.70055027    -0.10500
C731        C  0.05067746  0.88455324  0.85510237    -0.08900
C732        C  0.06599456  0.89589335  0.88422770    -0.10500
C733        C  0.43553839  0.89166163  0.62012349    -0.08900
C734        C  0.45367816  0.88188962  0.64805035    -0.10500
C735        C  0.44331284  0.96288619  0.55133289    -0.12100
C736        C  0.44141946  0.92544522  0.55971375    -0.27200
H737        H  0.42355108  0.98229003  0.56563970     0.17000
H738        H  0.46204053  0.90610029  0.54669653     0.17500
C739        C  0.37413395  0.86638616  0.81543032    -0.08900
C740        C  0.40244903  0.87830172  0.79915662    -0.10500
C741        C  0.32714998  0.81502123  0.80727939    -0.12100
C742        C  0.28933498  0.81096448  0.79714793    -0.27200
H743        H  0.34828062  0.79530807  0.79559526     0.17000
H744        H  0.26776833  0.82964157  0.80972863     0.17500
C745        C  0.37830306  0.84849457  0.55424504    -0.08900
C746        C  0.39158391  0.87669581  0.56937570    -0.10500
C747        C  0.37209190  0.80878851  0.89576725    -0.08900
C748        C  0.36156299  0.82508151  0.86735292    -0.10500
C749        C  0.35281366  0.67866769  0.63180517    -0.08900
C750        C  0.36341903  0.69640586  0.60416087    -0.10500
C751        C  0.30275013  0.71068169  0.69213899    -0.12100
C752        C  0.30918783  0.67262721  0.69005386    -0.27200
H753        H  0.31829342  0.72919811  0.67260003     0.17000
H754        H  0.29492354  0.65401076  0.71033685     0.17500
C755        C  0.18106707  0.87588403  0.63497885    -0.08900
C756        C  0.19880475  0.90341278  0.62386945    -0.10500
C757        C  0.35622121  0.95265303  0.61443958    -0.08900
C758        C  0.38397046  0.93416006  0.60442252    -0.10500
C759        C  0.11661691  0.56574274  0.59866394    -0.08900
C760        C  0.14347037  0.54670458  0.61005898    -0.10500
C761        C  0.29729026  0.59630565  0.62607009    -0.08900
C762        C  0.31414788  0.62347593  0.63979412    -0.10500
C763        C  0.31558598  0.87212872  0.85066257    -0.08900
C764        C  0.29717271  0.89878144  0.86257125    -0.10500
C765        C  0.11546987  0.94053229  0.89957999    -0.08900
C766        C  0.14392357  0.95678032  0.88790577    -0.10500
C767        C  0.19837658  0.60874802  0.87274488    -0.08900
C768        C  0.18139764  0.63472249  0.85798681    -0.10500
C769        C  0.38272559  0.65771320  0.93846565    -0.08900
C770        C  0.39299755  0.63001598  0.92073972    -0.10500
C771        C  0.37940046  0.57631000  0.88093007    -0.08900
C772        C  0.35097020  0.55858308  0.87064097    -0.10500
C773        C  0.46330499  0.55946695  0.93808985    -0.12100
C774        C  0.42610826  0.57098965  0.93280076    -0.27200
H775        H  0.48599278  0.56981653  0.91924164     0.17000
H776        H  0.40406711  0.56165307  0.95282235     0.17500
C777        C  0.39848442  0.62356020  0.69575494    -0.08900
C778        C  0.36866896  0.63458199  0.68101067    -0.10500
C779        C  0.12971277  0.64093188  0.81297413    -0.08900
C780        C  0.10209571  0.62805016  0.79554372    -0.10500
C781        C  0.04784253  0.61930960  0.64134188    -0.08900
C782        C  0.06484432  0.60896019  0.61284968    -0.10500
C783        C  0.43878700  0.61088180  0.87337623    -0.08900
C784        C  0.45708327  0.62043707  0.84552666    -0.10500
O785        O  0.55456707  0.09404351  0.27228858    -0.67400
O786        O  0.95160861  0.10295288  0.22983851    -0.67600
O787        O  0.52933419  0.09745727  0.19946429    -0.67500
O788        O  0.97781177  0.09520129  0.30237220    -0.67500
O789        O  0.97649334  0.15690294  0.30837928    -0.67400
O790        O  0.52945297  0.15937877  0.20290471    -0.67500
O791        O  0.95458070  0.16472054  0.23460972    -0.67400
O792        O  0.55317382  0.15591936  0.27612475    -0.67600
V793        V  0.50479808  0.09563842  0.24726572     1.35200
V794        V  0.00272617  0.16026413  0.26003055     1.35200
C795        C  0.57030008  0.12517340  0.28289634     0.81800
C796        C  0.93666206  0.13531212  0.22351844     0.81900
C797        C  0.53813776  0.12902637  0.18509263     0.81800
C798        C  0.96877532  0.12415225  0.32163552     0.81700
C799        C  0.90286101  0.08828230  0.41053186     0.01900
O800        O  0.72572466  0.03775387  0.41011818    -0.67400
O801        O  0.76937540  0.43978622  0.40762900    -0.67600
O802        O  0.79894004  0.01248309  0.40451780    -0.67500
O803        O  0.69751481  0.46885338  0.41648402    -0.67500
O804        O  0.69088617  0.46807853  0.35436702    -0.67400
O805        O  0.79581821  0.01618630  0.34229741    -0.67500
O806        O  0.76428567  0.44293107  0.34551163    -0.67400
O807        O  0.72272823  0.04096471  0.34785203    -0.67600
V808        V  0.74979661  0.98888081  0.40435281     1.35200
V809        V  0.74530505  0.99263719  0.34465503     1.35200
C810        C  0.71602946  0.05561854  0.38007356     0.81800
C811        C  0.77439688  0.42473333  0.37479484     0.81900
C812        C  0.81370614  0.02323046  0.37352860     0.81800
C813        C  0.67702669  0.46160564  0.38736312     0.81700
O814        O  0.70866484  0.02689919  0.15803013    -0.67400
O815        O  0.80093576  0.48225170  0.15118442    -0.67600
O816        O  0.78297912  0.05017015  0.15822948    -0.67500
O817        O  0.72748290  0.45566623  0.15453370    -0.67500
O818        O  0.72573907  0.45263582  0.09222802    -0.67400
O819        O  0.78040809  0.05293735  0.09597026    -0.67500
O820        O  0.79838555  0.48165999  0.08883866    -0.67400
O821        O  0.70743792  0.02607205  0.09562393    -0.67600
V822        V  0.74985412  0.50455558  0.15123247     1.35200
V823        V  0.74837073  0.50303996  0.09131790     1.35200
C824        C  0.69169087  0.03510245  0.12673950     0.81800
C825        C  0.81666280  0.47438604  0.11920982     0.81900
C826        C  0.78918922  0.06841911  0.12795932     0.81800
C827        C  0.71912866  0.43730809  0.12450864     0.81700
C828        C  0.84393598  0.16766452  0.15836338     0.01900
O829        O  0.90225634  0.26702538  0.45425398    -0.67400
O830        O  0.90772623  0.22979261  0.04490656    -0.67600
O831        O  0.90069119  0.19511751  0.47946864    -0.67500
O832        O  0.90795598  0.30231302  0.02093578    -0.67500
O833        O  0.84474027  0.30339104  0.02405586    -0.67400
O834        O  0.83742511  0.19761882  0.47836362    -0.67500
O835        O  0.84443744  0.23056411  0.04675441    -0.67400
O836        O  0.83921259  0.27107859  0.45794765    -0.67600
V837        V  0.90461842  0.25461843  0.99616316     1.35200
V838        V  0.84382544  0.25464015  0.99878318     1.35200
C839        C  0.87011130  0.27759943  0.43992789     0.81800
C840        C  0.87632503  0.22178077  0.06207680     0.81900
C841        C  0.86861918  0.18055010  0.46966134     0.81800
C842        C  0.87742756  0.31897706  0.03121618     0.81700
C843        C  0.83911170  0.33337973  0.34297585     0.01900
C844        C  0.91275675  0.41313201  0.09027999     0.01900
O845        O  0.52532696  0.34056225  0.30002526    -0.67400
O846        O  0.97631616  0.34953396  0.20345506    -0.67600
O847        O  0.55225367  0.33905092  0.22765037    -0.67500
O848        O  0.95031250  0.34445908  0.27586135    -0.67500
O849        O  0.94815292  0.40622983  0.28074764    -0.67400
O850        O  0.55681787  0.40087758  0.22777314    -0.67500
O851        O  0.97410653  0.41129499  0.20815599    -0.67400
O852        O  0.52969443  0.40242313  0.29984811    -0.67600
V853        V  0.99971703  0.34872628  0.25367155     1.35200
V854        V  0.99820093  0.40819364  0.25664315     1.35200
C855        C  0.53463546  0.37144416  0.31690974     0.81800
C856        C  0.96728169  0.38144249  0.18910246     0.81900
C857        C  0.57147608  0.36863342  0.22013238     0.81800
C858        C  0.93275291  0.37387016  0.28662720     0.81700
C859        C  0.66376819  0.15227143  0.34897223     0.01900
C860        C  0.58060318  0.40316602  0.41891120     0.01900
C861        C  0.66604553  0.33845672  0.15767552     0.01900
C862        C  0.59724876  0.09439440  0.09336494     0.01900
O863        O  0.64901811  0.29618742  0.48507059    -0.67400
O864        O  0.66158675  0.20053478  0.02183044    -0.67600
O865        O  0.65561954  0.22479202  0.45829272    -0.67500
O866        O  0.66086228  0.27249653  0.04835120    -0.67500
O867        O  0.59750523  0.27214223  0.04777970    -0.67400
O868        O  0.59264003  0.21882566  0.45402438    -0.67500
O869        O  0.59825930  0.20026747  0.02038977    -0.67400
O870        O  0.58605573  0.29069467  0.47984892    -0.67600
V871        V  0.66033421  0.25036356  0.99935962     1.35200
V872        V  0.59947345  0.24865827  0.99797005     1.35200
C873        C  0.61655128  0.30991268  0.47492595     0.81800
C874        C  0.62950323  0.18391144  0.02887116     0.81900
C875        C  0.62611108  0.21394753  0.43970721     0.81800
C876        C  0.62937891  0.28068181  0.06438254     0.81700
C877        C  0.97116930  0.48936452  0.02709595     0.90900
C878        C  0.99969170  0.46469118  0.00348776    -0.49400
C879        C  0.51559087  0.47267493  0.48147730     0.13800
C880        C  0.51980386  0.02124866  0.48170830     0.24700
C881        C  0.00286709  0.01538641  0.05150299    -0.50100
C882        C  0.52649917  0.03620527  0.02429147     0.13900
C883        C  0.94957304  0.51301289  0.99685289    -0.49600
C884        C  0.97507843  0.02983098  0.47644382     0.14500
H885        H  0.99056283  0.42089867  0.49934941     0.19000
H886        H  0.53981047  0.03818995  0.46349718     0.04700
H887        H  0.00424676  0.01649143  0.08262261     0.19300
H888        H  0.92053938  0.00925700  0.50014114     0.19100
C889        C  0.76976515  0.21681768  0.23028724     0.91900
C890        C  0.74167069  0.19632796  0.25732868    -0.49400
C891        C  0.71887301  0.21980686  0.27875135     0.13800
C892        C  0.72627967  0.26241286  0.27097519     0.24700
C893        C  0.74355766  0.24308034  0.20595641    -0.50100
C894        C  0.72101142  0.26750713  0.22732100     0.13900
C895        C  0.79309177  0.24425024  0.25659353    -0.49600
C896        C  0.77030568  0.26840937  0.27809843     0.14500
H897        H  0.73942683  0.16548839  0.25875038     0.19000
H898        H  0.70766229  0.28157478  0.28840822     0.04700
H899        H  0.74313664  0.24216368  0.17484550     0.19300
H900        H  0.82463519  0.24429450  0.25743197     0.19100
C901        C  0.62676850  0.14782318  0.04768331    -0.08900
C902        C  0.61524407  0.12121378  0.06630845    -0.10500
C903        C  0.56841822  0.06592954  0.07571258    -0.12100
C904        C  0.55666743  0.06412573  0.03855477    -0.27200
H905        H  0.55628939  0.04574254  0.09587346     0.17000
H906        H  0.56940193  0.08329774  0.01776176     0.17500
C907        C  0.64453583  0.31820615  0.12726686    -0.08900
C908        C  0.63170984  0.30067860  0.10012973    -0.10500
C909        C  0.69499916  0.31031652  0.17529707    -0.12100
C910        C  0.69371659  0.29685240  0.21158857    -0.27200
H911        H  0.71725180  0.29947344  0.15616999     0.17000
H912        H  0.67224229  0.30805236  0.23129417     0.17500
C913        C  0.60064123  0.37386119  0.44103508    -0.08900
C914        C  0.61284975  0.34635533  0.45749289    -0.10500
C915        C  0.54888664  0.42080972  0.44380907    -0.12100
C916        C  0.54689385  0.45768367  0.45552098    -0.27200
H917        H  0.52659592  0.40094220  0.45300014     0.17000
H918        H  0.56879417  0.47784639  0.44599635     0.17500
C919        C  0.64519788  0.17730226  0.37719991    -0.08900
C920        C  0.63216900  0.19511986  0.40378377    -0.10500
C921        C  0.69495429  0.17267380  0.32591233    -0.12100
C922        C  0.68899724  0.20492805  0.30578650    -0.27200
H923        H  0.72358169  0.15962962  0.32455474     0.17000
H924        H  0.66171050  0.22011912  0.30852778     0.17500
C925        C  0.63690239  0.35397492  0.18438912    -0.08900
C926        C  0.60876402  0.36434369  0.20220734    -0.10500
C927        C  0.54993287  0.37309545  0.35510469    -0.08900
C928        C  0.56282145  0.38431271  0.38539742    -0.10500
C929        C  0.93346742  0.39608163  0.12300574    -0.08900
C930        C  0.94928905  0.38522831  0.15199153    -0.10500
C931        C  0.94259989  0.46978462  0.05440463    -0.12100
C932        C  0.94224880  0.43236220  0.06364311    -0.27200
H933        H  0.92139632  0.48844795  0.06763352     0.17000
H934        H  0.96423027  0.41381267  0.05170955     0.17500
C935        C  0.86942331  0.35515399  0.32308928    -0.08900
C936        C  0.89667636  0.36882287  0.30630191    -0.10500
C937        C  0.82277242  0.30325151  0.31527852    -0.12100
C938        C  0.78493858  0.29861699  0.30536271    -0.27200
H939        H  0.84405473  0.28380516  0.30341706     0.17000
H940        H  0.76335187  0.31732515  0.31786194     0.17500
C941        C  0.88137805  0.35454672  0.05143048    -0.08900
C942        C  0.89316413  0.38219657  0.06885526    -0.10500
C943        C  0.86737059  0.29706488  0.40402152    -0.08900
C944        C  0.85707985  0.31373299  0.37559239    -0.10500
C945        C  0.86426143  0.18647256  0.12662912    -0.08900
C946        C  0.87521194  0.20255175  0.09815453    -0.10500
C947        C  0.79433323  0.18796459  0.20800430    -0.12100
C948        C  0.81877712  0.19709513  0.17934627    -0.27200
H949        H  0.79189087  0.15807996  0.21564544     0.17000
H950        H  0.82065171  0.22683680  0.17094633     0.17500
C951        C  0.68690957  0.37089754  0.14017870    -0.08900
C952        C  0.70203897  0.39993636  0.12871666    -0.10500
C953        C  0.85398036  0.45622744  0.11589119    -0.08900
C954        C  0.88228523  0.43850832  0.10572495    -0.10500
C955        C  0.62833097  0.07324816  0.11282164    -0.08900
C956        C  0.65581135  0.05550943  0.12466802    -0.10500
C957        C  0.80575636  0.10613440  0.13141257    -0.08900
C958        C  0.82092810  0.13571766  0.14186979    -0.10500
C959        C  0.81087356  0.36106336  0.35828347    -0.08900
C960        C  0.79256012  0.38829184  0.36936237    -0.10500
C961        C  0.61033158  0.42955639  0.40445824    -0.08900
C962        C  0.63904598  0.44574619  0.39311399    -0.10500
C963        C  0.69718251  0.09179629  0.38063309    -0.08900
C964        C  0.68144184  0.12035647  0.36968757    -0.10500
C965        C  0.86950871  0.14576195  0.44799913    -0.08900
C966        C  0.88129997  0.11872076  0.43006155    -0.10500
C967        C  0.87506662  0.06484396  0.38828415    -0.08900
C968        C  0.84900468  0.04508179  0.37574901    -0.10500
C969        C  0.95975719  0.05595848  0.44597161    -0.12100
C970        C  0.92132963  0.06330709  0.44116585    -0.27200
H971        H  0.98082087  0.06897085  0.42697435     0.17000
H972        H  0.90052121  0.05072692  0.46063431     0.17500
C973        C  0.90067806  0.14015707  0.20301249    -0.08900
C974        C  0.87351071  0.15145910  0.18417649    -0.10500
C975        C  0.63366760  0.13661118  0.32324398    -0.08900
C976        C  0.60629763  0.12700664  0.30360712    -0.10500
C977        C  0.55874746  0.12855165  0.14964607    -0.08900
C978        C  0.57659901  0.11666376  0.12249361    -0.10500
C979        C  0.93022635  0.10608307  0.38359627    -0.08900
C980        C  0.94908589  0.11841124  0.35729348    -0.10500
O981        O  0.54717332  0.09633163  0.78014294    -0.67400
O982        O  0.96116814  0.09583948  0.73078719    -0.67600
O983        O  0.52184332  0.09605756  0.70747621    -0.67500
O984        O  0.98578529  0.09413426  0.80402802    -0.67500
O985        O  0.98237908  0.15595469  0.80674525    -0.67400
O986        O  0.52642394  0.15789314  0.70679842    -0.67500
O987        O  0.95983013  0.15778405  0.73304592    -0.67400
O988        O  0.54927106  0.15830729  0.78037066    -0.67600
V989        V  0.49745088  0.09921408  0.75537609     1.35200
V990        V  0.00824815  0.15768585  0.75816590     1.35200
C991        C  0.56492328  0.12708049  0.78834552     0.81800
C992        C  0.94410307  0.12681276  0.72320497     0.81900
C993        C  0.53285003  0.12589418  0.69099962     0.81800
C994        C  0.97525195  0.12373585  0.82147533     0.81700
C995        C  0.90597955  0.09345247  0.91041103     0.01900
O996        O  0.72837196  0.04845363  0.91017787    -0.67400
O997        O  0.77200915  0.44952457  0.90096754    -0.67600
O998        O  0.80014551  0.01957335  0.90665870    -0.67500
O999        O  0.69836140  0.47421018  0.90926583    -0.67500
O1000       O  0.69103415  0.47547477  0.84724285    -0.67400
O1001       O  0.79630672  0.02282614  0.84444524    -0.67500
O1002       O  0.76471817  0.45131190  0.83895899    -0.67400
O1003       O  0.72305574  0.04702071  0.84792697    -0.67600
V1004       V  0.74995856  0.99826893  0.90736658     1.35200
V1005       V  0.74596567  0.99896203  0.84749395     1.35200
C1006       C  0.71831665  0.06431979  0.87911645     0.81800
C1007       C  0.77684350  0.43433109  0.86820198     0.81900
C1008       C  0.81471299  0.02981763  0.87541011     0.81800
C1009       C  0.67777173  0.46738137  0.88008901     0.81700
O1010       O  0.70513911  0.02204611  0.66009053    -0.67400
O1011       O  0.79746954  0.46807489  0.65538782    -0.67600
O1012       O  0.77907151  0.04631261  0.66297663    -0.67500
O1013       O  0.72220166  0.44572350  0.65360432    -0.67500
O1014       O  0.72508670  0.44044028  0.59146555    -0.67400
O1015       O  0.77786877  0.05272819  0.60094188    -0.67500
O1016       O  0.79979952  0.46515758  0.59310325    -0.67400
O1017       O  0.70506947  0.02532202  0.59778166    -0.67600
V1018       V  0.74789814  0.49286504  0.65049916     1.35200
V1019       V  0.75096751  0.48908840  0.59072187     1.35200
C1020       C  0.68839717  0.03162624  0.62910107     0.81800
C1021       C  0.81543159  0.45864845  0.62506939     0.81900
C1022       C  0.78594758  0.06613684  0.63397406     0.81800
C1023       C  0.71411087  0.42739481  0.62352109     0.81700
C1024       C  0.84588134  0.15950238  0.66979590     0.01900
O1025       O  0.90292982  0.27916342  0.94726632    -0.67400
O1026       O  0.90333563  0.21963237  0.55302942    -0.67600
O1027       O  0.90480118  0.20697613  0.97131974    -0.67500
O1028       O  0.90700130  0.29100981  0.52719248    -0.67500
O1029       O  0.84389435  0.29344259  0.53159028    -0.67400
O1030       O  0.84152685  0.20585786  0.97369992    -0.67500
O1031       O  0.84002285  0.22035681  0.55275774    -0.67400
O1032       O  0.83971800  0.27856400  0.95079505    -0.67600
V1033       V  0.90207484  0.24311475  0.50351065     1.35200
V1034       V  0.84131777  0.24547687  0.50514507     1.35200
C1035       C  0.87005092  0.28667151  0.93250999     0.81800
C1036       C  0.87140338  0.21270669  0.56975835     0.81900
C1037       C  0.87317574  0.19021075  0.96396453     0.81800
C1038       C  0.87706922  0.30830609  0.53793102     0.81700
C1039       C  0.84331270  0.34474269  0.83508861     0.01900
C1040       C  0.91324572  0.40047491  0.59909337     0.01900
O1041       O  0.51796015  0.34009504  0.80717553    -0.67400
O1042       O  0.98382013  0.33920619  0.70943285    -0.67600
O1043       O  0.54353283  0.33722275  0.73482431    -0.67500
O1044       O  0.95998451  0.34429320  0.78203979    -0.67500
O1045       O  0.96227597  0.40615193  0.77872751    -0.67400
O1046       O  0.54543096  0.39916657  0.73372463    -0.67500
O1047       O  0.98789795  0.40098919  0.70654983    -0.67400
O1048       O  0.51765986  0.40204478  0.80533914    -0.67600
V1049       V  0.00890896  0.34209223  0.75870130     1.35200
V1050       V  0.01214938  0.40146362  0.75500678     1.35200
C1051       C  0.52602929  0.37192772  0.82271787     0.81800
C1052       C  0.97663680  0.36996283  0.69195933     0.81900
C1053       C  0.56135545  0.36744453  0.72660701     0.81800
C1054       C  0.94450870  0.37601090  0.78838768     0.81700
C1055       C  0.66494481  0.15700944  0.84103600     0.01900
C1056       C  0.58518736  0.40702546  0.91671309     0.01900
C1057       C  0.65183465  0.33693811  0.66063203     0.01900
C1058       C  0.59110682  0.08773413  0.59832547     0.01900
O1059       O  0.66014414  0.30023444  0.97714642    -0.67400
O1060       O  0.65178213  0.19684850  0.52953856    -0.67600
O1061       O  0.66358318  0.22867699  0.95023645    -0.67500
O1062       O  0.64737806  0.26847611  0.55622568    -0.67500
O1063       O  0.58411490  0.26723512  0.55258632    -0.67400
O1064       O  0.60031235  0.22567342  0.94793524    -0.67500
O1065       O  0.58849126  0.19492382  0.52672455    -0.67400
O1066       O  0.59686995  0.29679937  0.97562276    -0.67600
V1067       V  0.64971251  0.24646858  0.50720716     1.35200
V1068       V  0.58901442  0.24293756  0.50337163     1.35200
C1069       C  0.62755520  0.31508335  0.96906472     0.81800
C1070       C  0.62005787  0.17941805  0.53580658     0.81900
C1071       C  0.63301123  0.21991708  0.93228369     0.81800
C1072       C  0.61499171  0.27629165  0.57068237     0.81700
C1073       C  0.96005908  0.47269125  0.52593515     0.90900
C1074       C  0.99072564  0.45166257  0.50190492    -0.49400
C1075       C  0.52124900  0.48011725  0.97540953     0.13800
C1076       C  0.51948605  0.02780038  0.98117523     0.24700
C1077       C  0.00270633  0.00952412  0.54933591    -0.50100
C1078       C  0.52479375  0.02938137  0.52520523     0.13900
C1079       C  0.94143845  0.50081955  0.49794583    -0.49600
C1080       C  0.97653535  0.03500249  0.97801939     0.14500
H1081       H  0.00082533  0.43400216  0.00516882     0.19000
H1082       H  0.53887759  0.04442145  0.96205532     0.04700
H1083       H  0.00471190  0.01056548  0.58043138     0.19300
H1084       H  0.92172248  0.01371185  0.00040589     0.19100
C1085       C  0.77266237  0.22927817  0.72246294     0.91900
C1086       C  0.74878483  0.20503996  0.75071738    -0.49400
C1087       C  0.72673850  0.22612250  0.77584509     0.13800
C1088       C  0.73092335  0.26941555  0.77008287     0.24700
C1089       C  0.74259610  0.25476518  0.70303313    -0.50100
C1090       C  0.72054683  0.27615056  0.72748361     0.13900
C1091       C  0.79690304  0.25660826  0.74816924    -0.49600
C1092       C  0.77499877  0.27731994  0.77369619     0.14500
H1093       H  0.74977441  0.17418302  0.75054588     0.19000
H1094       H  0.71317506  0.28658200  0.79030014     0.04700
H1095       H  0.73927814  0.25478907  0.67215538     0.19300
H1096       H  0.82846892  0.25787430  0.74742590     0.19100
C1097       C  0.61833537  0.14322535  0.55420055    -0.08900
C1098       C  0.60817481  0.11585777  0.57228881    -0.10500
C1099       C  0.56324173  0.05929960  0.57918689    -0.12100
C1100       C  0.55365133  0.05758083  0.54134943    -0.27200
H1101       H  0.55059482  0.03868461  0.59857061     0.17000
H1102       H  0.56733794  0.07695560  0.52134873     0.17500
C1103       C  0.62812716  0.31524829  0.63279580    -0.08900
C1104       C  0.61533448  0.29675584  0.60626196    -0.10500
C1105       C  0.68240223  0.31046925  0.67709036    -0.12100
C1106       C  0.68901891  0.30264495  0.71458083    -0.27200
H1107       H  0.70079317  0.29782726  0.65541870     0.17000
H1108       H  0.67140001  0.31607440  0.73651145     0.17500
C1109       C  0.60858385  0.37881987  0.93713408    -0.08900
C1110       C  0.62341283  0.35176604  0.95225881    -0.10500
C1111       C  0.55626857  0.42528100  0.94425957    -0.12100
C1112       C  0.55154544  0.46313470  0.94980532    -0.27200
H1113       H  0.53735607  0.40554257  0.95917117     0.17000
H1114       H  0.57006219  0.48296897  0.93453226     0.17500
C1115       C  0.64858141  0.18464836  0.86818647    -0.08900
C1116       C  0.63702741  0.20250819  0.89539442    -0.10500
C1117       C  0.69229515  0.17331416  0.81081657    -0.12100
C1118       C  0.70104032  0.21061366  0.80663375    -0.27200
H1119       H  0.70458982  0.15280705  0.79092049     0.17000
H1120       H  0.68821104  0.23130155  0.82597442     0.17500
C1121       C  0.62536495  0.35406356  0.68879012    -0.08900
C1122       C  0.59824413  0.36440710  0.70794701    -0.10500
C1123       C  0.54551169  0.37531134  0.85889090    -0.08900
C1124       C  0.56319512  0.38708293  0.88648790    -0.10500
C1125       C  0.93506623  0.38178923  0.63011998    -0.08900
C1126       C  0.95440147  0.37137126  0.65707125    -0.10500
C1127       C  0.93078058  0.44692785  0.54609857    -0.12100
C1128       C  0.94151389  0.42421811  0.57541261    -0.27200
H1129       H  0.90017722  0.44854664  0.53823757     0.17000
H1130       H  0.97225842  0.42361915  0.58316149     0.17500
C1131       C  0.87728528  0.36525926  0.82028583    -0.08900
C1132       C  0.90725925  0.37607146  0.80623555    -0.10500
C1133       C  0.82548603  0.32079630  0.80256490    -0.12100
C1134       C  0.79133517  0.30190314  0.80521713    -0.27200
H1135       H  0.84110687  0.31911797  0.77555265     0.17000
H1136       H  0.77417713  0.30513646  0.83108984     0.17500
C1137       C  0.88226029  0.34370040  0.55777109    -0.08900
C1138       C  0.89471200  0.37076126  0.57546073    -0.10500
C1139       C  0.86600558  0.30438535  0.89578099    -0.08900
C1140       C  0.85670334  0.32081524  0.86688194    -0.10500
C1141       C  0.86096211  0.18246800  0.63786424    -0.08900
C1142       C  0.86954379  0.19691158  0.60765843    -0.10500
C1143       C  0.79517629  0.20643950  0.69241384    -0.12100
C1144       C  0.82514339  0.18326729  0.70047567    -0.27200
H1145       H  0.78634804  0.20876161  0.66252160     0.17000
H1146       H  0.83473173  0.18134800  0.73020803     0.17500
C1147       C  0.67242804  0.36729210  0.64002787    -0.08900
C1148       C  0.69159948  0.39317811  0.62736717    -0.10500
C1149       C  0.85287217  0.44049157  0.62526508    -0.08900
C1150       C  0.88218157  0.42382979  0.61620030    -0.10500
C1151       C  0.62291940  0.06686475  0.61683111    -0.08900
C1152       C  0.65145752  0.05018141  0.62773781    -0.10500
C1153       C  0.80322431  0.10284627  0.64008032    -0.08900
C1154       C  0.82016830  0.13032990  0.65287492    -0.10500
C1155       C  0.81629268  0.37308956  0.85070132    -0.08900
C1156       C  0.79716620  0.39928186  0.86259457    -0.10500
C1157       C  0.61261251  0.43328831  0.89816641    -0.08900
C1158       C  0.64033084  0.45025085  0.88564343    -0.10500
C1159       C  0.70126333  0.10112032  0.87723113    -0.08900
C1160       C  0.68556990  0.12845480  0.86362334    -0.10500
C1161       C  0.87483033  0.15413931  0.94460192    -0.08900
C1162       C  0.88593962  0.12566212  0.92859407    -0.10500
C1163       C  0.87710007  0.07044093  0.88902273    -0.08900
C1164       C  0.85041645  0.05110650  0.87706229    -0.10500
C1165       C  0.96169794  0.06079392  0.94708072    -0.12100
C1166       C  0.92346765  0.06884734  0.94195970    -0.27200
H1167       H  0.98311923  0.07310719  0.92800596     0.17000
H1168       H  0.90235888  0.05729722  0.96179122     0.17500
C1169       C  0.90765440  0.12847245  0.70343121    -0.08900
C1170       C  0.87876459  0.13977106  0.68758152    -0.10500
C1171       C  0.63213759  0.13816864  0.82166022    -0.08900
C1172       C  0.60229629  0.12801164  0.80639707    -0.10500
C1173       C  0.55304774  0.12173568  0.65544303    -0.08900
C1174       C  0.57012544  0.10875577  0.62824291    -0.10500
C1175       C  0.93417015  0.10889318  0.88283611    -0.08900
C1176       C  0.95421909  0.11940637  0.85659245    -0.10500
O1177       O  0.55179825  0.59355450  0.27787943    -0.67400
O1178       O  0.94549740  0.59876931  0.22366484    -0.67600
O1179       O  0.52594864  0.59995528  0.20578466    -0.67500
O1180       O  0.97123846  0.59026187  0.29652323    -0.67500
O1181       O  0.97182080  0.65178212  0.30428277    -0.67400
O1182       O  0.53034497  0.66166514  0.21042214    -0.67500
O1183       O  0.94706163  0.66032814  0.23112152    -0.67400
O1184       O  0.55416296  0.65532200  0.28328505    -0.67600
V1185       V  0.50179463  0.59880486  0.25375651     1.35200
V1186       V  0.99613037  0.65595707  0.25493325     1.35200
C1187       C  0.56982008  0.62355727  0.28832537     0.81800
C1188       C  0.92978823  0.63100606  0.21878254     0.81900
C1189       C  0.53666145  0.63110550  0.19181420     0.81800
C1190       C  0.96407057  0.61885707  0.31715130     0.81700
C1191       C  0.90177430  0.58717117  0.41063145     0.01900
O1192       O  0.72579411  0.54017252  0.41468365    -0.67400
O1193       O  0.77375427  0.93979952  0.39980917    -0.67600
O1194       O  0.79741344  0.51159982  0.40855535    -0.67500
O1195       O  0.70070611  0.96569504  0.40785092    -0.67500
O1196       O  0.69431072  0.97020791  0.34590544    -0.67400
O1197       O  0.79154723  0.51544340  0.34652922    -0.67500
O1198       O  0.76756166  0.94418888  0.33786089    -0.67400
O1199       O  0.71843902  0.53932598  0.35263479    -0.67600
V1200       V  0.74742936  0.48997419  0.41064145     1.35200
V1201       V  0.74146244  0.49123970  0.35095180     1.35200
C1202       C  0.71490296  0.55646960  0.38409702     0.81800
C1203       C  0.77838636  0.92551976  0.36660555     0.81900
C1204       C  0.81079592  0.52243679  0.37700299     0.81800
C1205       C  0.68024144  0.96126982  0.37818842     0.81700
O1206       O  0.69885419  0.52701333  0.15220743    -0.67400
O1207       O  0.80814331  0.97751346  0.15447616    -0.67600
O1208       O  0.77232406  0.55346243  0.15191745    -0.67500
O1209       O  0.73343504  0.95410857  0.15693333    -0.67500
O1210       O  0.73212767  0.95358795  0.09456621    -0.67400
O1211       O  0.77102701  0.55338078  0.08954096    -0.67500
O1212       O  0.80574137  0.98034580  0.09219948    -0.67400
O1213       O  0.69830119  0.52439906  0.08986364    -0.67600
V1214       V  0.75832129  0.00212643  0.15571919     1.35200
V1215       V  0.75653767  0.00315434  0.09580887     1.35200
C1216       C  0.68163790  0.53343921  0.12054828     0.81800
C1217       C  0.82353243  0.97068736  0.12213781     0.81900
C1218       C  0.77932006  0.57020024  0.12099647     0.81800
C1219       C  0.72428051  0.93739936  0.12610781     0.81700
C1220       C  0.83941642  0.66539148  0.15228172     0.01900
O1221       O  0.90383933  0.77260654  0.44937078    -0.67400
O1222       O  0.90963313  0.72519784  0.04200743    -0.67600
O1223       O  0.90126799  0.70022130  0.47306399    -0.67500
O1224       O  0.91249637  0.79819375  0.01981166    -0.67500
O1225       O  0.84924079  0.80045491  0.02176697    -0.67400
O1226       O  0.83797129  0.70155003  0.47152553    -0.67500
O1227       O  0.84629684  0.72696875  0.04175564    -0.67400
O1228       O  0.84054546  0.77447443  0.44930161    -0.67600
V1229       V  0.90862883  0.75108590  0.99395144     1.35200
V1230       V  0.84777045  0.75275971  0.99491808     1.35200
C1231       C  0.87221081  0.78162123  0.43291375     0.81800
C1232       C  0.87751747  0.71747079  0.05788559     0.81900
C1233       C  0.86954431  0.68476041  0.46353579     0.81800
C1234       C  0.88204571  0.81538063  0.02951023     0.81700
C1235       C  0.84243600  0.83385820  0.33388997     0.01900
C1236       C  0.91735429  0.90876842  0.08879032     0.01900
O1237       O  0.52623889  0.84039544  0.29691768    -0.67400
O1238       O  0.98175952  0.84124712  0.19867028    -0.67600
O1239       O  0.55267978  0.84091351  0.22444232    -0.67500
O1240       O  0.95481745  0.83997023  0.27054475    -0.67500
O1241       O  0.95586404  0.90190420  0.27324362    -0.67400
O1242       O  0.55542642  0.90282994  0.22509470    -0.67500
O1243       O  0.98312190  0.90319048  0.20132601    -0.67400
O1244       O  0.52952523  0.90231910  0.29757146    -0.67600
V1245       V  0.00464534  0.84087957  0.24904578     1.35200
V1246       V  0.00638968  0.90042156  0.24985381     1.35200
C1247       C  0.53513394  0.87122478  0.31414498     0.81800
C1248       C  0.97438895  0.87317130  0.18348173     0.81900
C1249       C  0.57098939  0.87104162  0.21710817     0.81800
C1250       C  0.93851117  0.87057107  0.27966831     0.81700
C1251       C  0.66643396  0.65220729  0.34661269     0.01900
C1252       C  0.58479251  0.90527217  0.41295761     0.01900
C1253       C  0.66487388  0.84041051  0.15446886     0.01900
C1254       C  0.58513338  0.59509311  0.09363527     0.01900
O1255       O  0.65746750  0.79987016  0.47708369    -0.67400
O1256       O  0.65265494  0.69918450  0.02093447    -0.67600
O1257       O  0.66134727  0.72820990  0.45091339    -0.67500
O1258       O  0.65568174  0.77144980  0.04669153    -0.67500
O1259       O  0.59248596  0.77511229  0.04558655    -0.67400
O1260       O  0.59810551  0.72374717  0.44907100    -0.67500
O1261       O  0.58944502  0.70238635  0.02004228    -0.67400
O1262       O  0.59423776  0.79567401  0.47456423    -0.67600
V1263       V  0.65405519  0.74890244  0.99793506     1.35200
V1264       V  0.59324263  0.75007218  0.99631530     1.35200
C1265       C  0.62488803  0.81412881  0.46816699     0.81800
C1266       C  0.61973297  0.68446765  0.02862247     0.81900
C1267       C  0.63083972  0.71789315  0.43369983     0.81800
C1268       C  0.62477374  0.78221350  0.06219989     0.81700
C1269       C  0.97529986  0.98816432  0.02967863     0.90900
C1270       C  0.00233571  0.96403746  0.00389897    -0.49400
C1271       C  0.52487015  0.97768943  0.47715709     0.13800
C1272       C  0.51086246  0.51580811  0.49048136     0.24700
C1273       C  0.99729438  0.51820703  0.04851522    -0.50100
C1274       C  0.52090852  0.53077550  0.02396914     0.13900
C1275       C  0.95324545  0.01364269  0.00149927    -0.49600
C1276       C  0.96727578  0.52493322  0.48025439     0.14500
H1277       H  0.00035916  0.92756031  0.50178244     0.19000
H1278       H  0.53278321  0.53399107  0.47603028     0.04700
H1279       H  0.99581892  0.52201254  0.07937587     0.19300
H1280       H  0.91045471  0.50014639  0.49193308     0.19100
C1281       C  0.76781213  0.71688103  0.22430224     0.91900
C1282       C  0.74080840  0.69661936  0.25239252    -0.49400
C1283       C  0.71903533  0.72011605  0.27464410     0.13800
C1284       C  0.72626517  0.76279873  0.26647553     0.24700
C1285       C  0.74081606  0.74311755  0.20086712    -0.50100
C1286       C  0.71924530  0.76777091  0.22296285     0.13900
C1287       C  0.79238166  0.74430171  0.24951797    -0.49600
C1288       C  0.77066896  0.76871415  0.27177650     0.14500
H1289       H  0.73840234  0.66578992  0.25384581     0.19000
H1290       H  0.70844231  0.78210143  0.28454979     0.04700
H1291       H  0.73921399  0.74202286  0.16979018     0.19300
H1292       H  0.82392829  0.74429817  0.24900700     0.19100
C1293       C  0.61503194  0.64882991  0.04813777    -0.08900
C1294       C  0.60273999  0.62261854  0.06696208    -0.10500
C1295       C  0.55150218  0.57222017  0.07532441    -0.12100
C1296       C  0.55367998  0.55388105  0.04115616    -0.27200
H1297       H  0.52394454  0.57120253  0.09049972     0.17000
H1298       H  0.58014997  0.55659972  0.02450247     0.17500
C1299       C  0.64253159  0.82125515  0.12373266    -0.08900
C1300       C  0.62847506  0.80357127  0.09718438    -0.10500
C1301       C  0.69281651  0.81103403  0.17162304    -0.12100
C1302       C  0.69186992  0.79747231  0.20790387    -0.27200
H1303       H  0.71453041  0.79977474  0.15214034     0.17000
H1304       H  0.67106336  0.80911272  0.22805166     0.17500
C1305       C  0.60705442  0.87716757  0.43442539    -0.08900
C1306       C  0.62097601  0.85031566  0.45053338    -0.10500
C1307       C  0.55512089  0.92372153  0.43974929    -0.12100
C1308       C  0.55394499  0.96106455  0.44976341    -0.27200
H1309       H  0.53381035  0.90435735  0.45181676     0.17000
H1310       H  0.57471286  0.98070317  0.43723271     0.17500
C1311       C  0.64760021  0.67863420  0.37296081    -0.08900
C1312       C  0.63499309  0.69803342  0.39839052    -0.10500
C1313       C  0.69657874  0.67209161  0.32182767    -0.12100
C1314       C  0.69017479  0.70489157  0.30253697    -0.27200
H1315       H  0.72492613  0.65869074  0.31926321     0.17000
H1316       H  0.66328537  0.72041699  0.30673755     0.17500
C1317       C  0.63630928  0.85664987  0.18137176    -0.08900
C1318       C  0.60833163  0.86757318  0.19911979    -0.10500
C1319       C  0.55091310  0.87283657  0.35210654    -0.08900
C1320       C  0.56477988  0.88497461  0.38160703    -0.10500
C1321       C  0.93881376  0.88972082  0.11956104    -0.08900
C1322       C  0.95553324  0.87709945  0.14711490    -0.10500
C1323       C  0.94731466  0.96747821  0.05665854    -0.12100
C1324       C  0.94622334  0.92942367  0.06281699    -0.27200
H1325       H  0.92707552  0.98560377  0.07197053     0.17000
H1326       H  0.96735717  0.91127407  0.04899532     0.17500
C1327       C  0.87308753  0.85493803  0.31368110    -0.08900
C1328       C  0.90135986  0.86779643  0.29785049    -0.10500
C1329       C  0.82500172  0.80349204  0.30689899    -0.12100
C1330       C  0.78676287  0.79923050  0.29800532    -0.27200
H1331       H  0.84564294  0.78346578  0.29490667     0.17000
H1332       H  0.76582659  0.81847630  0.31074830     0.17500
C1333       C  0.88596740  0.85106288  0.04926513    -0.08900
C1334       C  0.89738957  0.87890053  0.06645621    -0.10500
C1335       C  0.87068333  0.79963743  0.39617684    -0.08900
C1336       C  0.86045628  0.81482262  0.36687426    -0.10500
C1337       C  0.86191752  0.68303297  0.12160144    -0.08900
C1338       C  0.87484414  0.69826719  0.09362272    -0.10500
C1339       C  0.79097290  0.68756644  0.20144814    -0.12100
C1340       C  0.81561063  0.69599240  0.17285687    -0.27200
H1341       H  0.78764899  0.65769912  0.20889473     0.17000
H1342       H  0.81882603  0.72566420  0.16457307     0.17500
C1343       C  0.68733417  0.87239051  0.13796236    -0.08900
C1344       C  0.70465557  0.90098002  0.12840219    -0.10500
C1345       C  0.85992298  0.95121483  0.11786758    -0.08900
C1346       C  0.88751209  0.93329066  0.10642839    -0.10500
C1347       C  0.61603230  0.56981502  0.10808571    -0.08900
C1348       C  0.64446215  0.55200158  0.11782549    -0.10500
C1349       C  0.79737040  0.60724741  0.12342284    -0.08900
C1350       C  0.81466323  0.63540840  0.13458551    -0.10500
C1351       C  0.81480261  0.86211904  0.34900573    -0.08900
C1352       C  0.79671204  0.88936162  0.36028109    -0.10500
C1353       C  0.61312413  0.93108860  0.39530207    -0.08900
C1354       C  0.64177720  0.94640988  0.38279631    -0.10500
C1355       C  0.69887241  0.59388443  0.38293591    -0.08900
C1356       C  0.68475625  0.62225723  0.36961892    -0.10500
C1357       C  0.87109431  0.64884377  0.44373773    -0.08900
C1358       C  0.88212725  0.62014532  0.42799533    -0.10500
C1359       C  0.87256258  0.56420299  0.38960259    -0.08900
C1360       C  0.84604799  0.54447976  0.37790539    -0.10500
C1361       C  0.95565398  0.55254594  0.44927982    -0.12100
C1362       C  0.91808853  0.56268969  0.44304864    -0.27200
H1363       H  0.97836618  0.56387994  0.43104007     0.17000
H1364       H  0.89613016  0.55256988  0.46282337     0.17500
C1365       C  0.89390306  0.63581393  0.19809066    -0.08900
C1366       C  0.86726222  0.64737500  0.17870878    -0.10500
C1367       C  0.63616370  0.63408263  0.32289052    -0.08900
C1368       C  0.60734020  0.62344424  0.30607243    -0.10500
C1369       C  0.55580752  0.62968155  0.15544520    -0.08900
C1370       C  0.57009268  0.61698044  0.12652198    -0.10500
C1371       C  0.92994090  0.60161142  0.38235586    -0.08900
C1372       C  0.94706799  0.61269494  0.35427444    -0.10500
O1373       O  0.55613915  0.59363559  0.76552682    -0.67400
O1374       O  0.94806152  0.59183766  0.72055480    -0.67600
O1375       O  0.52704135  0.58940978  0.69352781    -0.67500
O1376       O  0.97598409  0.59036791  0.79280201    -0.67500
O1377       O  0.97600134  0.65230173  0.79514561    -0.67400
O1378       O  0.52737245  0.65129527  0.69100933    -0.67500
O1379       O  0.94859480  0.65377519  0.72277718    -0.67400
O1380       O  0.55406433  0.65550989  0.76359984    -0.67600
V1381       V  0.50504234  0.59250424  0.74271161     1.35200
V1382       V  0.99855995  0.65227763  0.74480464     1.35200
C1383       C  0.57177240  0.62577170  0.77286193     0.81800
C1384       C  0.93136049  0.62330085  0.71390078     0.81900
C1385       C  0.53488568  0.61934206  0.67553765     0.81800
C1386       C  0.96851904  0.62053678  0.81076772     0.81700
C1387       C  0.90436266  0.59176208  0.90325623     0.01900
O1388       O  0.72232783  0.54688349  0.90785024    -0.67400
O1389       O  0.77162635  0.94801836  0.90563015    -0.67600
O1390       O  0.79574860  0.52249228  0.90205704    -0.67500
O1391       O  0.69986174  0.97739988  0.91175755    -0.67500
O1392       O  0.69530428  0.97584649  0.84946681    -0.67400
O1393       O  0.79133395  0.52356875  0.83978341    -0.67500
O1394       O  0.76864611  0.95071877  0.84333826    -0.67400
O1395       O  0.71776336  0.54696129  0.84554293    -0.67600
V1396       V  0.74700458  0.49818706  0.90384903     1.35200
V1397       V  0.74134585  0.49919850  0.84409860     1.35200
C1398       C  0.71194108  0.56318065  0.87713491     0.81800
C1399       C  0.77755239  0.93275996  0.87308339     0.81900
C1400       C  0.80996252  0.53174585  0.87032970     0.81800
C1401       C  0.68048329  0.96956851  0.88207456     0.81700
O1402       O  0.69842988  0.51786569  0.64674115    -0.67400
O1403       O  0.80554288  0.97465979  0.65521456    -0.67600
O1404       O  0.77301213  0.54041365  0.65109732    -0.67500
O1405       O  0.73129650  0.95042129  0.65507900    -0.67500
O1406       O  0.73057007  0.95357076  0.59276463    -0.67400
O1407       O  0.77630702  0.53796297  0.58882107    -0.67500
O1408       O  0.80399511  0.98094475  0.59319164    -0.67400
O1409       O  0.70247122  0.51284621  0.58466196    -0.67600
V1410       V  0.75531936  0.99842991  0.65712831     1.35200
V1411       V  0.75448381  0.00302422  0.59736339     1.35200
C1412       C  0.68397527  0.52365955  0.61369205     0.81800
C1413       C  0.82145383  0.96978892  0.62277108     0.81900
C1414       C  0.78273289  0.55566934  0.62011966     0.81800
C1415       C  0.72241339  0.93574852  0.62326040     0.81700
C1416       C  0.83452429  0.65350615  0.65424109     0.01900
O1417       O  0.90923915  0.77698949  0.94595620    -0.67400
O1418       O  0.90034684  0.72267275  0.54686388    -0.67600
O1419       O  0.90796269  0.70396124  0.96793785    -0.67500
O1420       O  0.90521752  0.79516726  0.52320250    -0.67500
O1421       O  0.84201613  0.79880537  0.52262454    -0.67400
O1422       O  0.84462513  0.70517166  0.96797195    -0.67500
O1423       O  0.83714075  0.72585528  0.54493549    -0.67400
O1424       O  0.84594894  0.77868520  0.94819026    -0.67600
V1425       V  0.90142857  0.74774409  0.49813971     1.35200
V1426       V  0.84063386  0.75013949  0.49714155     1.35200
C1427       C  0.87705069  0.78672191  0.93124759     0.81800
C1428       C  0.86763037  0.71582585  0.56211970     0.81900
C1429       C  0.87596080  0.68865352  0.95893481     0.81800
C1430       C  0.87487851  0.81315564  0.53149007     0.81700
C1431       C  0.84197442  0.84387125  0.83803841     0.01900
C1432       C  0.91396384  0.90638343  0.58886681     0.01900
O1433       O  0.52689317  0.84663894  0.80018618    -0.67400
O1434       O  0.97895898  0.84574038  0.70233193    -0.67600
O1435       O  0.55408948  0.84382021  0.72799431    -0.67500
O1436       O  0.95207598  0.84844390  0.77425826    -0.67500
O1437       O  0.95390104  0.91041643  0.77467642    -0.67400
O1438       O  0.55745852  0.90568699  0.72609348    -0.67500
O1439       O  0.97935060  0.90771996  0.70212484    -0.67400
O1440       O  0.53077121  0.90849526  0.79841395    -0.67600
V1441       V  0.00193390  0.84798338  0.75254872     1.35200
V1442       V  0.00375435  0.90746978  0.75048817     1.35200
C1443       C  0.53592819  0.87796893  0.81628770     0.81800
C1444       C  0.97102878  0.87674134  0.68566072     0.81900
C1445       C  0.57255031  0.87350399  0.71924293     0.81800
C1446       C  0.93624029  0.87962572  0.78235113     0.81700
C1447       C  0.66293737  0.65867880  0.84002140     0.01900
C1448       C  0.58636635  0.91007062  0.91608648     0.01900
C1449       C  0.66379142  0.84141626  0.65417240     0.01900
C1450       C  0.59191936  0.58734167  0.57865982     0.01900
O1451       O  0.65628841  0.79874952  0.97538097    -0.67400
O1452       O  0.65981453  0.70082083  0.52222926    -0.67600
O1453       O  0.65647711  0.72664080  0.94902568    -0.67500
O1454       O  0.65793410  0.77288522  0.54849299    -0.67500
O1455       O  0.59455434  0.77266918  0.54721014    -0.67400
O1456       O  0.59317723  0.72571213  0.94670318    -0.67500
O1457       O  0.59644658  0.70028960  0.52168687    -0.67400
O1458       O  0.59299650  0.79773916  0.97275843    -0.67600
V1459       V  0.65793518  0.75038550  0.49969525     1.35200
V1460       V  0.59705783  0.74811253  0.49819249     1.35200
C1461       C  0.62445162  0.81493916  0.96681220     0.81800
C1462       C  0.62794947  0.68397221  0.52932290     0.81900
C1463       C  0.62568853  0.71862842  0.93110858     0.81800
C1464       C  0.62621898  0.78136037  0.56396825     0.81700
C1465       C  0.97421740  0.98285779  0.52799140     0.90900
C1466       C  0.00031895  0.95832937  0.50154722    -0.49400
C1467       C  0.52429766  0.98407171  0.97705529     0.13800
C1468       C  0.51745305  0.52365043  0.98025817     0.24700
C1469       C  0.98339444  0.49751912  0.55401535    -0.50100
C1470       C  0.51189252  0.51849054  0.53515119     0.13900
C1471       C  0.95205261  0.00873624  0.50037823    -0.49600
C1472       C  0.97321436  0.53389713  0.97325550     0.14500
H1473       H  0.00281605  0.93331862  0.00405590     0.19000
H1474       H  0.53900153  0.54007090  0.96329176     0.04700
H1475       H  0.97974563  0.49588264  0.58492143     0.19300
H1476       H  0.91809860  0.51245384  0.99470158     0.19100
C1477       C  0.77507453  0.72776452  0.72616264     0.91900
C1478       C  0.74827914  0.70488629  0.75297584    -0.49400
C1479       C  0.72354474  0.72695876  0.77424831     0.13800
C1480       C  0.72892200  0.77008013  0.76749233     0.24700
C1481       C  0.74755669  0.75290718  0.70231383    -0.50100
C1482       C  0.72339242  0.77539775  0.72397236     0.13900
C1483       C  0.79640774  0.75592136  0.75279285    -0.49600
C1484       C  0.77259678  0.77829320  0.77480984     0.14500
H1485       H  0.74782191  0.67396831  0.75356902     0.19000
H1486       H  0.70925122  0.78802228  0.78510658     0.04700
H1487       H  0.74775350  0.75254913  0.67122003     0.19300
H1488       H  0.82788376  0.75784778  0.75301780     0.19100
C1489       C  0.62579125  0.64693874  0.54580776    -0.08900
C1490       C  0.61337394  0.61817008  0.55993415    -0.10500
C1491       C  0.56534321  0.56680148  0.54956389    -0.12100
C1492       C  0.54052334  0.53915861  0.56044960    -0.27200
H1493       H  0.56561727  0.57550010  0.51971113     0.17000
H1494       H  0.54029535  0.53180355  0.59071071     0.17500
C1495       C  0.64090150  0.82039948  0.62554073    -0.08900
C1496       C  0.62794800  0.80204109  0.59915542    -0.10500
C1497       C  0.69320819  0.81401639  0.67146015    -0.12100
C1498       C  0.69452649  0.80313802  0.70852170    -0.27200
H1499       H  0.71412836  0.80221872  0.65150025     0.17000
H1500       H  0.67416613  0.81522632  0.72884690     0.17500
C1501       C  0.60832040  0.88046867  0.93638392    -0.08900
C1502       C  0.62188353  0.85223434  0.95067702    -0.10500
C1503       C  0.55687779  0.92873905  0.94310903    -0.12100
C1504       C  0.55374821  0.96668528  0.95040390    -0.27200
H1505       H  0.53656578  0.90925442  0.95650660     0.17000
H1506       H  0.57325327  0.98634363  0.93611255     0.17500
C1507       C  0.64270118  0.68405830  0.86696178    -0.08900
C1508       C  0.62952798  0.70101914  0.89413439    -0.10500
C1509       C  0.69584092  0.67832640  0.81834092    -0.12100
C1510       C  0.69178920  0.71100702  0.79860204    -0.27200
H1511       H  0.72423148  0.66473018  0.81821740     0.17000
H1512       H  0.66461197  0.72654362  0.80028085     0.17500
C1513       C  0.63633760  0.85847226  0.68150837    -0.08900
C1514       C  0.60921300  0.86935315  0.70036990    -0.10500
C1515       C  0.55154694  0.88039598  0.85432695    -0.08900
C1516       C  0.56575700  0.89140791  0.88411090    -0.10500
C1517       C  0.93547801  0.88841854  0.62033162    -0.08900
C1518       C  0.95222410  0.87827778  0.64895728    -0.10500
C1519       C  0.94610453  0.96321113  0.55561665    -0.12100
C1520       C  0.94303469  0.92527486  0.56163566    -0.27200
H1521       H  0.92732601  0.98224461  0.57162952     0.17000
H1522       H  0.96277812  0.90616529  0.54705693     0.17500
C1523       C  0.87106688  0.86636821  0.81735801    -0.08900
C1524       C  0.89923792  0.87836546  0.80082796    -0.10500
C1525       C  0.82483016  0.81402270  0.81082075    -0.12100
C1526       C  0.78671555  0.80869030  0.80209893    -0.27200
H1527       H  0.84623660  0.79521765  0.79827328     0.17000
H1528       H  0.76499762  0.82677137  0.81529931     0.17500
C1529       C  0.87935487  0.84896269  0.55107925    -0.08900
C1530       C  0.89246717  0.87639144  0.56790139    -0.10500
C1531       C  0.87428174  0.80699688  0.89617092    -0.08900
C1532       C  0.86223048  0.82404209  0.86886331    -0.10500
C1533       C  0.85252189  0.67794235  0.62495294    -0.08900
C1534       C  0.86366302  0.69605159  0.59777479    -0.10500
C1535       C  0.80452533  0.70446963  0.70263347    -0.12100
C1536       C  0.80401094  0.67534706  0.67784503    -0.27200
H1537       H  0.77810237  0.68574225  0.68914483     0.17000
H1538       H  0.82869835  0.69564356  0.69199679     0.17500
C1539       C  0.68479328  0.87226549  0.63476331    -0.08900
C1540       C  0.70230718  0.89993762  0.62370818    -0.10500
C1541       C  0.85787120  0.95051883  0.61788623    -0.08900
C1542       C  0.88509146  0.93226827  0.60611562    -0.10500
C1543       C  0.62074345  0.56145191  0.59568832    -0.08900
C1544       C  0.64786798  0.54319761  0.60769950    -0.10500
C1545       C  0.80054807  0.59260340  0.62224511    -0.08900
C1546       C  0.81516160  0.62178656  0.63403964    -0.10500
C1547       C  0.81403877  0.87011578  0.85569461    -0.08900
C1548       C  0.79559712  0.89646078  0.86823822    -0.10500
C1549       C  0.61490428  0.93614525  0.89913924    -0.08900
C1550       C  0.64282758  0.95292473  0.88694498    -0.10500
C1551       C  0.69384860  0.59954242  0.87605321    -0.08900
C1552       C  0.67928069  0.62764683  0.86281406    -0.10500
C1553       C  0.87660836  0.65316452  0.93860260    -0.08900
C1554       C  0.88612843  0.62452881  0.92200611    -0.10500
C1555       C  0.87401912  0.57031427  0.88221443    -0.08900
C1556       C  0.84610949  0.55233876  0.87088186    -0.10500
C1557       C  0.95914997  0.55865871  0.94102840    -0.12100
C1558       C  0.92106979  0.56629936  0.93457304    -0.27200
H1559       H  0.98104456  0.57132036  0.92270257     0.17000
H1560       H  0.89949534  0.55462163  0.95384695     0.17500
C1561       C  0.89401364  0.62607661  0.69550032    -0.08900
C1562       C  0.86552920  0.63673798  0.67825022    -0.10500
C1563       C  0.63438664  0.64182795  0.81313477    -0.08900
C1564       C  0.60788841  0.63013935  0.79330214    -0.10500
C1565       C  0.55278677  0.61558171  0.63856709    -0.08900
C1566       C  0.56927790  0.60466268  0.61003008    -0.10500
C1567       C  0.93243239  0.60654595  0.87518272    -0.08900
C1568       C  0.95066021  0.61713205  0.84768309    -0.10500
loop_ 
_geom_bond_atom_site_label_1 
_geom_bond_atom_site_label_2 
_geom_bond_distance 
_geom_bond_site_symmetry_2 
_ccdc_geom_bond_type 
O1            V9   1.917       .  S
O1           C11   1.268       .  A
O2          V793   1.918       .  S
O2           C12   1.268       .  A
O3            V9   1.872       .  S
O3           C13   1.255       .  A
O4          V793   1.874       .  S
O4           C14   1.255       .  A
O5           V10   1.915       .  S
O5           C14   1.268       .  A
O6          V794   1.920       .  S
O6           C13   1.269       .  A
O7           V10   1.879       .  S
O7           C12   1.257       .  A
O8          V794   1.872       .  S
O8           C11   1.255       .  A
V9          O786   1.921   1_455  S
V9          O788   1.878   1_455  S
V9          V794   2.090       .  T
V10         O790   1.916       .  S
V10         O792   1.876       .  S
V10         V793   2.091       .  T
C11         C192   1.427       .  S
C12         C189   1.433       .  S
C13         C193   1.429       .  S
C14         C196   1.426       .  S
C15         C182   1.465       .  S
C15         C183   1.471       .  S
C15         C195   1.465       .  S
C15         C186   1.521       .  S
O16          V24   1.919   1_545  S
O16          C26   1.269       .  A
O17         V416   1.927       .  S
O17          C27   1.272       .  A
O18          V24   1.875   1_545  S
O18          C28   1.255       .  A
O19         V416   1.872       .  S
O19          C29   1.253       .  A
O20         V417   1.926       .  S
O20          C29   1.271       .  A
O21          V25   1.921   1_545  S
O21          C28   1.269       .  A
O22         V417   1.878       .  S
O22          C27   1.255       .  A
O23          V25   1.872   1_545  S
O23          C26   1.255       .  A
V24         O409   1.922       .  S
V24         O411   1.877       .  S
V24          V25   2.090       .  T
V25         O412   1.920       .  S
V25         O414   1.883       .  S
C26         C179   1.429       .  S
C27         C176   1.439       .  S
C28         C184   1.433       .  S
C29         C178   1.434       .  S
O30         V430   1.926       .  S
O30          C40   1.271       .  A
O31          V38   1.924       .  S
O31          C41   1.270       .  A
O32         V430   1.876       .  S
O32          C42   1.254       .  A
O33          V38   1.879       .  S
O33          C43   1.256       .  A
O34          V39   1.921       .  S
O34          C43   1.269       .  A
O35         V431   1.930       .  S
O35          C42   1.272       .  A
O36          V39   1.884       .  S
O36          C41   1.257       .  A
O37         V431   1.880       .  S
O37          C40   1.256       .  A
V38         O422   1.922       .  S
V38         O424   1.878       .  S
V38          V39   2.090       .  T
V39         O427   1.919       .  S
V39         O429   1.879       .  S
C40         C172   1.439       .  S
C41         C169   1.441       .  S
C42         C173   1.441       .  S
C43         C168   1.435       .  S
C44         C161   1.477       .  S
C44         C174   1.478       .  S
C44         C190   1.470       .  S
C44         C164   1.536       .  S
O45         V249   1.910       .  S
O45          C55   1.266       .  A
O46          V53   1.926       .  S
O46          C56   1.271       .  A
O47         V249   1.883       .  S
O47          C57   1.258       .  A
O48          V53   1.875       .  S
O48          C58   1.254       .  A
O49          V54   1.931       .  S
O49          C58   1.273       .  A
O50         V250   1.910       .  S
O50          C57   1.265       .  A
O51          V54   1.879       .  S
O51          C56   1.255       .  A
O52         V250   1.880       .  S
O52          C55   1.257       .  A
V53         O241   1.924   1_554  S
V53         O243   1.872   1_554  S
V53          V54   2.089       .  T
V54         O246   1.931   1_554  S
V54         O248   1.873   1_554  S
C55         C159   1.427       .  S
C56         C162   1.439       .  S
C57         C181   1.429       .  S
C58         C157   1.441       .  S
C59         C151   1.469       .  S
C59         C160   1.463       .  S
C59         C175   1.478       .  S
C59         C153   1.531       .  S
C60         C145   1.470       .  S
C60         C158   1.478       .  S
C60         C170   1.478       .  S
C60         C148   1.535       .  S
O61         V853   1.919   1_455  S
O61          C71   1.268       .  A
O62          V69   1.918       .  S
O62          C72   1.268       .  A
O63         V853   1.876   1_455  S
O63          C73   1.255       .  A
O64          V69   1.876       .  S
O64          C74   1.256       .  A
O65          V70   1.919       .  S
O65          C74   1.268       .  A
O66         V854   1.920   1_455  S
O66          C73   1.269       .  A
O67          V70   1.876       .  S
O67          C72   1.256       .  A
O68         V854   1.878   1_455  S
O68          C71   1.256       .  A
V69         O845   1.917       .  S
V69         O847   1.883       .  S
V69          V70   2.091       .  T
V70         O850   1.920       .  S
V70         O852   1.874       .  S
C71         C143   1.432       .  S
C72         C146   1.431       .  S
C73         C142   1.432       .  S
C74         C152   1.431       .  S
C75         C135   1.467       .  S
C75         C180   1.468       .  S
C75         C191   1.464       .  S
C75         C137   1.529       .  S
C76         C129   1.472       .  S
C76         C144   1.468       .  S
C76         C177   1.472       .  S
C76         C131   1.533       .  S
C77         C123   1.465       .  S
C77         C141   1.471       .  S
C77         C167   1.472       .  S
C77         C125   1.522       .  S
C78         C118   1.472       .  S
C78         C171   1.476       .  S
C78         C194   1.470       .  S
C78         C119   1.527       .  S
O79         V283   1.926       .  S
O79          C89   1.271       .  A
O80          V87   1.920       .  S
O80          C90   1.269       .  A
O81         V283   1.872       .  S
O81          C91   1.254       .  A
O82          V87   1.872       .  S
O82          C92   1.255       .  A
O83          V88   1.915       .  S
O83          C92   1.267       .  A
O84         V284   1.919       .  S
O84          C91   1.269       .  A
O85          V88   1.879       .  S
O85          C90   1.256       .  A
O86         V284   1.869       .  S
O86          C89   1.253       .  A
V87         O275   1.917   1_554  S
V87         O277   1.873   1_554  S
V87          V88   2.091       .  T
V88         O280   1.913   1_554  S
V88         O282   1.869   1_554  S
C89         C130   1.432       .  S
C90         C117   1.434       .  S
C91         C136   1.429       .  S
C92         C124   1.427       .  S
C93          C94   1.539   1_554  S
C93          C99   1.531   1_554  S
C93         C147   1.533       .  S
C93         C489   1.545       .  S
C94         H297   1.083       .  S
C94        C1075   1.375       .  D
C95         C488   1.553       .  S
C95        C1074   1.378   1_455  D
C95         C132   1.510       .  S
C96         C487   1.543   1_545  S
C96         C884   1.549   1_455  S
C96         C294   1.545       .  S
C96         H102   1.111       .  S
C97         C485   1.534   1_545  S
C97         H103   1.084       .  S
C97         C882   1.372       .  D
C98         C292   1.544   1_554  S
C98         C881   1.369       .  D
C98         C120   1.496       .  S
C99         H692   1.083       .  S
C99         C688   1.370       .  D
C100        C880   1.547       .  S
C100        C687   1.370       .  D
C100        C185   1.500       .  S
H101        C290   1.083       .  S
H104        C687   1.083       .  S
C105        C106   1.538       .  S
C105        C111   1.545       .  S
C105        C109   1.537       .  S
C105        C163   1.532       .  S
C106        H113   1.086       .  S
C106        C107   1.370       .  D
C107        C108   1.547       .  S
C107        C138   1.495       .  S
C108        C112   1.544       .  S
C108        C110   1.538       .  S
C108        H114   1.111       .  S
C109        H115   1.084       .  S
C109        C110   1.369       .  D
C110        C126   1.497       .  S
C111        H116   1.084       .  S
C111        C112   1.379       .  D
C112        C154   1.502       .  S
C117        C118   1.207       .  T
C119        H121   1.088       .  S
C119        C120   1.350       .  D
C120        H122   1.086       .  S
C123        C124   1.204       .  T
C125        H127   1.086       .  S
C125        C126   1.353       .  D
C126        H128   1.085       .  S
C129        C130   1.208       .  T
C131        H133   1.084       .  S
C131        C132   1.357       .  D
C132        H134   1.085       .  S
C135        C136   1.205       .  T
C137        H139   1.088       .  S
C137        C138   1.353       .  D
C138        H140   1.086       .  S
C141        C142   1.206       .  T
C143        C144   1.206       .  T
C145        C146   1.206       .  T
C147        H149   1.087       .  S
C147        C148   1.348       .  D
C148        H150   1.088       .  S
C151        C152   1.206       .  T
C153        H155   1.086       .  S
C153        C154   1.351       .  D
C154        H156   1.085       .  S
C157        C158   1.212       .  T
C159        C160   1.203       .  T
C161        C162   1.210       .  T
C163        H165   1.087       .  S
C163        C164   1.350       .  D
C164        H166   1.088       .  S
C167        C168   1.208       .  T
C169        C170   1.211       .  T
C171        C172   1.211       .  T
C173        C174   1.212       .  T
C175        C176   1.211       .  T
C177        C178   1.208       .  T
C179        C180   1.205       .  T
C181        C182   1.204       .  T
C183        C184   1.207       .  T
C185        H187   1.085       .  S
C185        C186   1.354       .  D
C186        H188   1.083       .  S
C189        C190   1.207       .  T
C191        C192   1.204       .  T
C193        C194   1.205       .  T
C195        C196   1.203       .  T
O197        V205   1.914       .  S
O197        C207   1.267       .  A
O198        V989   1.914       .  S
O198        C208   1.267       .  A
O199        V205   1.877       .  S
O199        C209   1.256       .  A
O200        V989   1.878       .  S
O200        C210   1.256       .  A
O201        V206   1.921       .  S
O201        C210   1.269       .  A
O202        V990   1.918       .  S
O202        C209   1.268       .  A
O203        V206   1.881       .  S
O203        C208   1.257       .  A
O204        V990   1.876       .  S
O204        C207   1.256       .  A
V205        O982   1.915   1_455  S
V205        O984   1.881   1_455  S
V205        V990   2.091       .  T
V206        O986   1.919       .  S
V206        O988   1.876       .  S
V206        V989   2.091       .  T
C207        C388   1.428       .  S
C208        C385   1.431       .  S
C209        C389   1.432       .  S
C210        C392   1.435       .  S
C211        C378   1.477       .  S
C211        C379   1.467       .  S
C211        C391   1.473       .  S
C211        C382   1.526       .  S
O212        V220   1.915   1_545  S
O212        C222   1.267       .  A
O213        V612   1.919       .  S
O213        C223   1.269       .  A
O214        V220   1.874   1_545  S
O214        C224   1.255       .  A
O215        V612   1.876       .  S
O215        C225   1.255       .  A
O216        V613   1.914       .  S
O216        C225   1.267       .  A
O217        V221   1.917       .  S
O217        C224   1.268       .  A
O218        V613   1.875       .  S
O218        C223   1.255       .  A
O219        V221   1.868       .  S
O219        C222   1.254       .  A
V220        O605   1.916       .  S
V220        O607   1.874       .  S
V220        V221   2.092   1_565  T
V221        O608   1.913   1_545  S
V221        O610   1.879   1_545  S
C222        C375   1.423       .  S
C223        C372   1.432       .  S
C224        C380   1.428       .  S
C225        C374   1.427       .  S
O226        V626   1.917       .  S
O226        C236   1.268       .  A
O227        V234   1.922       .  S
O227        C237   1.269       .  A
O228        V626   1.877       .  S
O228        C238   1.256       .  A
O229        V234   1.872       .  S
O229        C239   1.254       .  A
O230        V235   1.923       .  S
O230        C239   1.270       .  A
O231        V627   1.919       .  S
O231        C238   1.269       .  A
O232        V235   1.878       .  S
O232        C237   1.256       .  A
O233        V627   1.878       .  S
O233        C236   1.256       .  A
V234        O618   1.922       .  S
V234        O620   1.871       .  S
V234        V235   2.090       .  T
V235        O623   1.923       .  S
V235        O625   1.881       .  S
C236        C368   1.431       .  S
C237        C365   1.434       .  S
C238        C369   1.432       .  S
C239        C364   1.432       .  S
C240        C357   1.465       .  S
C240        C370   1.470       .  S
C240        C386   1.469       .  S
C240        C360   1.523       .  S
O241        C251   1.270       .  A
O242        V249   1.912       .  S
O242        C252   1.266       .  A
O243        C253   1.254       .  A
O244        V249   1.880       .  S
O244        C254   1.257       .  A
O245        V250   1.910       .  S
O245        C254   1.266       .  A
O246        C253   1.272       .  A
O247        V250   1.876       .  S
O247        C252   1.257       .  A
O248        C251   1.254       .  A
V249        V250   2.092       .  T
C251        C355   1.433       .  S
C252        C358   1.426       .  S
C253        C377   1.437       .  S
C254        C353   1.427       .  S
C255        C347   1.469       .  S
C255        C356   1.471       .  S
C255        C371   1.469       .  S
C255        C349   1.533       .  S
C256        C341   1.466       .  S
C256        C354   1.464       .  S
C256        C366   1.473       .  S
C256        C344   1.521       .  S
O257       V1049   1.914       .  S
O257        C267   1.267       .  A
O258        V265   1.914       .  S
O258        C268   1.267       .  A
O259       V1049   1.880       .  S
O259        C269   1.257       .  A
O260        V265   1.881       .  S
O260        C270   1.257       .  A
O261        V266   1.915       .  S
O261        C270   1.267       .  A
O262       V1050   1.914       .  S
O262        C269   1.267       .  A
O263        V266   1.877       .  S
O263        C268   1.256       .  A
O264       V1050   1.875       .  S
O264        C267   1.256       .  A
V265       O1041   1.913       .  S
V265       O1043   1.881       .  S
V265        V266   2.091       .  T
V266       O1046   1.915       .  S
V266       O1048   1.877       .  S
C267        C339   1.427       .  S
C268        C342   1.428       .  S
C269        C338   1.430       .  S
C270        C348   1.431       .  S
C271        C331   1.460       .  S
C271        C376   1.465       .  S
C271        C387   1.465       .  S
C271        C333   1.521       .  S
C272        C325   1.463       .  S
C272        C340   1.463       .  S
C272        C373   1.466       .  S
C272        C327   1.529       .  S
C273        C319   1.468       .  S
C273        C337   1.469       .  S
C273        C363   1.470       .  S
C273        C321   1.532       .  S
C274        C314   1.470       .  S
C274        C367   1.467       .  S
C274        C390   1.471       .  S
C274        C315   1.528       .  S
O275        C285   1.268       .  A
O276        V283   1.925       .  S
O276        C286   1.271       .  A
O277        C287   1.255       .  A
O278        V283   1.866       .  S
O278        C288   1.253       .  A
O279        V284   1.923       .  S
O279        C288   1.270       .  A
O280        C287   1.267       .  A
O281        V284   1.869       .  S
O281        C286   1.253       .  A
O282        C285   1.254       .  A
V283        V284   2.091       .  T
C285        C326   1.425       .  S
C286        C313   1.431       .  S
C287        C332   1.424       .  S
C288        C320   1.427       .  S
C289        C290   1.535       .  S
C289        C295   1.528       .  S
C289        C685   1.527       .  S
C289        C343   1.520       .  S
C290        C879   1.376       .  D
C291        C684   1.543       .  S
C291        C878   1.376   1_456  D
C291        C328   1.499       .  S
C292        C683   1.543   1_545  S
C292       C1080   1.549   1_455  S
C292        H298   1.111       .  S
C293        C681   1.529   1_545  S
C293        H299   1.084       .  S
C293       C1078   1.368       .  D
C294       C1077   1.368       .  D
C294        C316   1.497       .  S
C295        H496   1.082       .  S
C295        C492   1.372       .  D
C296       C1076   1.550       .  S
C296        C491   1.371       .  D
C296        C381   1.507       .  S
H300        C491   1.083       .  S
C301        C302   1.531       .  S
C301        C307   1.530       .  S
C301        C305   1.538       .  S
C301        C359   1.519       .  S
C302        H309   1.086       .  S
C302        C303   1.366       .  D
C303        C304   1.546       .  S
C303        C334   1.490       .  S
C304        C308   1.557       .  S
C304        C306   1.552       .  S
C304        H310   1.109       .  S
C305        H311   1.084       .  S
C305        C306   1.375       .  D
C306        C322   1.502       .  S
C307        H312   1.087       .  S
C307        C308   1.366       .  D
C308        C350   1.499       .  S
C313        C314   1.207       .  T
C315        H317   1.088       .  S
C315        C316   1.352       .  D
C316        H318   1.086       .  S
C319        C320   1.205       .  T
C321        H323   1.085       .  S
C321        C322   1.357       .  D
C322        H324   1.085       .  S
C325        C326   1.203       .  T
C327        H329   1.085       .  S
C327        C328   1.354       .  D
C328        H330   1.085       .  S
C331        C332   1.201       .  T
C333        H335   1.089       .  S
C333        C334   1.350       .  D
C334        H336   1.086       .  S
C337        C338   1.205       .  T
C339        C340   1.203       .  T
C341        C342   1.204       .  T
C343        H345   1.087       .  S
C343        C344   1.348       .  D
C344        H346   1.089       .  S
C347        C348   1.205       .  T
C349        H351   1.086       .  S
C349        C350   1.349       .  D
C350        H352   1.088       .  S
C353        C354   1.203       .  T
C355        C356   1.207       .  T
C357        C358   1.203       .  T
C359        H361   1.087       .  S
C359        C360   1.347       .  D
C360        H362   1.088       .  S
C363        C364   1.207       .  T
C365        C366   1.208       .  T
C367        C368   1.206       .  T
C369        C370   1.206       .  T
C371        C372   1.206       .  T
C373        C374   1.203       .  T
C375        C376   1.202       .  T
C377        C378   1.211       .  T
C379        C380   1.205       .  T
C381        H383   1.085       .  S
C381        C382   1.358       .  D
C382        H384   1.083       .  S
C385        C386   1.206       .  T
C387        C388   1.204       .  T
C389        C390   1.206       .  T
C391        C392   1.208       .  T
O393        V401   1.917   1_455  S
O393        C403   1.268       .  A
O394       V1185   1.920       .  S
O394        C404   1.270       .  A
O395        V401   1.881   1_455  S
O395        C405   1.257       .  A
O396       V1185   1.878       .  S
O396        C406   1.255       .  A
O397        V402   1.924       .  S
O397        C406   1.270       .  A
O398       V1186   1.925   1_455  S
O398        C405   1.270       .  A
O399        V402   1.877       .  S
O399        C404   1.255       .  A
O400       V1186   1.874   1_455  S
O400        C403   1.255       .  A
V401       O1178   1.920       .  S
V401       O1180   1.884       .  S
V401       V1186   2.090       .  T
V402       O1182   1.924       .  S
V402       O1184   1.870       .  S
V402       V1185   2.090       .  T
C403        C584   1.429       .  S
C404        C581   1.434       .  S
C405        C585   1.439       .  S
C406        C588   1.437       .  S
C407        C574   1.471       .  S
C407        C575   1.477       .  S
C407        C587   1.474       .  S
C407        C578   1.527       .  S
O408        V416   1.925       .  S
O408        C418   1.270       .  A
O409        C419   1.270       .  A
O410        V416   1.872       .  S
O410        C420   1.254       .  A
O411        C421   1.256       .  A
O412        C421   1.269       .  A
O413        V417   1.929       .  S
O413        C420   1.272       .  A
O414        C419   1.257       .  A
O415        V417   1.865       .  S
O415        C418   1.252       .  A
V416        V417   2.089       .  T
C418        C571   1.428       .  S
C419        C568   1.438       .  S
C420        C576   1.437       .  S
C421        C570   1.433       .  S
O422        C432   1.269       .  A
O423        V430   1.927   1_565  S
O423        C433   1.271       .  A
O424        C434   1.256       .  A
O425        V430   1.880   1_565  S
O425        C435   1.255       .  A
O426        V431   1.932   1_565  S
O426        C435   1.273       .  A
O427        C434   1.269       .  A
O428        V431   1.881   1_565  S
O428        C433   1.256       .  A
O429        C432   1.256       .  A
V430        V431   2.089       .  T
C432        C564   1.436       .  S
C433        C561   1.441       .  S
C434        C565   1.433       .  S
C435        C560   1.443       .  S
C436        C553   1.464       .  S
C436        C566   1.471       .  S
C436        C582   1.472       .  S
C436        C556   1.529       .  S
O437        V641   1.919       .  S
O437        C447   1.268       .  A
O438        V445   1.911   1_554  S
O438        C448   1.265       .  A
O439        V641   1.877       .  S
O439        C449   1.256       .  A
O440        V445   1.878   1_554  S
O440        C450   1.257       .  A
O441        V446   1.913   1_554  S
O441        C450   1.266       .  A
O442        V642   1.919       .  S
O442        C449   1.269       .  A
O443        V446   1.880   1_554  S
O443        C448   1.258       .  A
O444        V642   1.881       .  S
O444        C447   1.257       .  A
V445        O633   1.908       .  S
V445        O635   1.879       .  S
V445        V446   2.092       .  T
V446        O638   1.912       .  S
V446        O640   1.879       .  S
C447        C551   1.436       .  S
C448        C554   1.427       .  S
C449        C573   1.433       .  S
C450        C549   1.428       .  S
C451        C543   1.472       .  S
C451        C552   1.472       .  S
C451        C567   1.476       .  S
C451        C545   1.529       .  S
C452        C537   1.468       .  S
C452        C550   1.465       .  S
C452        C562   1.480       .  S
C452        C540   1.532       .  S
O453       V1245   1.919       .  S
O453        C463   1.269       .  A
O454        V461   1.920       .  S
O454        C464   1.269       .  A
O455       V1245   1.879       .  S
O455        C465   1.256       .  A
O456        V461   1.875       .  S
O456        C466   1.255       .  A
O457        V462   1.922       .  S
O457        C466   1.270       .  A
O458       V1246   1.923       .  S
O458        C465   1.270       .  A
O459        V462   1.876       .  S
O459        C464   1.255       .  A
O460       V1246   1.867       .  S
O460        C463   1.253       .  A
V461       O1237   1.919       .  S
V461       O1239   1.879       .  S
V461        V462   2.090       .  T
V462       O1242   1.923       .  S
V462       O1244   1.870       .  S
C463        C535   1.425       .  S
C464        C538   1.432       .  S
C465        C534   1.437       .  S
C466        C544   1.434       .  S
C467        C527   1.463       .  S
C467        C572   1.469       .  S
C467        C583   1.467       .  S
C467        C529   1.524       .  S
C468        C521   1.457       .  S
C468        C536   1.464       .  S
C468        C569   1.471       .  S
C468        C523   1.530       .  S
C469        C515   1.473       .  S
C469        C533   1.477       .  S
C469        C559   1.480       .  S
C469        C517   1.538       .  S
C470        C510   1.477       .  S
C470        C563   1.472       .  S
C470        C586   1.476       .  S
C470        C511   1.529       .  S
O471        V675   1.910       .  S
O471        C481   1.265       .  A
O472        V479   1.924   1_554  S
O472        C482   1.271       .  A
O473        V675   1.877       .  S
O473        C483   1.256       .  A
O474        V479   1.874   1_554  S
O474        C484   1.255       .  A
O475        V480   1.925   1_554  S
O475        C484   1.270       .  A
O476        V676   1.911       .  S
O476        C483   1.266       .  A
O477        V480   1.876   1_554  S
O477        C482   1.255       .  A
O478        V676   1.869       .  S
O478        C481   1.255       .  A
V479        O667   1.921       .  S
V479        O669   1.879       .  S
V479        V480   2.090       .  T
V480        O672   1.925       .  S
V480        O674   1.868       .  S
C481        C522   1.419       .  S
C482        C509   1.436       .  S
C483        C528   1.425       .  S
C484        C516   1.435       .  S
C485        C486   1.547       .  S
C485        C491   1.531   1_564  S
C485        C539   1.534       .  S
C486        H689   1.079       .  S
C486       C1467   1.375   1_554  D
C487       C1466   1.377       .  D
C487        C524   1.503       .  S
C488       C1276   1.556   1_455  S
C488        C686   1.558       .  S
C488        H494   1.110       .  S
C489        H495   1.085       .  S
C489       C1274   1.375       .  D
C490        C684   1.544   1_554  S
C490       C1273   1.370   1_455  D
C490        C512   1.499       .  S
C492       C1272   1.558       .  S
C492        C577   1.509       .  S
H493        C682   1.080       .  S
C497        C498   1.530       .  S
C497        C503   1.538       .  S
C497        C501   1.543       .  S
C497        C555   1.526       .  S
C498        H505   1.082       .  S
C498        C499   1.365       .  D
C499        C500   1.548       .  S
C499        C530   1.502       .  S
C500        C504   1.547       .  S
C500        C502   1.550       .  S
C500        H506   1.111       .  S
C501        H507   1.084       .  S
C501        C502   1.376       .  D
C502        C518   1.506       .  S
C503        H508   1.084       .  S
C503        C504   1.375       .  D
C504        C546   1.501       .  S
C509        C510   1.209       .  T
C511        H513   1.085       .  S
C511        C512   1.356       .  D
C512        H514   1.085       .  S
C515        C516   1.208       .  T
C517        H519   1.086       .  S
C517        C518   1.359       .  D
C518        H520   1.085       .  S
C521        C522   1.199       .  T
C523        H525   1.085       .  S
C523        C524   1.353       .  D
C524        H526   1.085       .  S
C527        C528   1.202       .  T
C529        H531   1.083       .  S
C529        C530   1.359       .  D
C530        H532   1.085       .  S
C533        C534   1.209       .  T
C535        C536   1.203       .  T
C537        C538   1.206       .  T
C539        H541   1.086       .  S
C539        C540   1.352       .  D
C540        H542   1.083       .  S
C543        C544   1.208       .  T
C545        H547   1.085       .  S
C545        C546   1.354       .  D
C546        H548   1.085       .  S
C549        C550   1.204       .  T
C551        C552   1.208       .  T
C553        C554   1.203       .  T
C555        H557   1.087       .  S
C555        C556   1.345       .  D
C556        H558   1.088       .  S
C559        C560   1.213       .  T
C561        C562   1.211       .  T
C563        C564   1.208       .  T
C565        C566   1.207       .  T
C567        C568   1.209       .  T
C569        C570   1.207       .  T
C571        C572   1.206       .  T
C573        C574   1.207       .  T
C575        C576   1.210       .  T
C577        H579   1.085       .  S
C577        C578   1.359       .  D
C578        H580   1.083       .  S
C581        C582   1.208       .  T
C583        C584   1.205       .  T
C585        C586   1.211       .  T
C587        C588   1.209       .  T
O589        V597   1.922   1_455  S
O589        C599   1.269       .  A
O590       V1381   1.925       .  S
O590        C600   1.270       .  A
O591        V597   1.880   1_455  S
O591        C601   1.256       .  A
O592       V1381   1.877       .  S
O592        C602   1.255       .  A
O593        V598   1.923       .  S
O593        C602   1.270       .  A
O594       V1382   1.924   1_455  S
O594        C601   1.270       .  A
O595        V598   1.878       .  S
O595        C600   1.255       .  A
O596       V1382   1.874   1_455  S
O596        C599   1.255       .  A
V597       O1374   1.923       .  S
V597       O1376   1.877       .  S
V597       V1382   2.090       .  T
V598       O1378   1.922       .  S
V598       O1380   1.876       .  S
V598       V1381   2.090       .  T
C599        C780   1.432       .  S
C600        C777   1.438       .  S
C601        C781   1.438       .  S
C602        C784   1.435       .  S
C603        C770   1.465       .  S
C603        C771   1.469       .  S
C603        C783   1.473       .  S
C603        C774   1.523       .  S
O604        V612   1.917       .  S
O604        C614   1.268       .  A
O605        C615   1.268       .  A
O606        V612   1.877       .  S
O606        C616   1.256       .  A
O607        C617   1.255       .  A
O608        C617   1.267       .  A
O609        V613   1.917       .  S
O609        C616   1.268       .  A
O610        C615   1.256       .  A
O611        V613   1.868       .  S
O611        C614   1.254       .  A
V612        V613   2.091       .  T
C614        C767   1.423       .  S
C615        C764   1.431       .  S
C616        C772   1.431       .  S
C617        C766   1.427       .  S
O618        C628   1.270       .  A
O619        V626   1.920   1_565  S
O619        C629   1.269       .  A
O620        C630   1.254       .  A
O621        V626   1.877   1_565  S
O621        C631   1.256       .  A
O622        V627   1.919   1_565  S
O622        C631   1.269       .  A
O623        C630   1.270       .  A
O624        V627   1.882   1_565  S
O624        C629   1.257       .  A
O625        C628   1.256       .  A
V626        V627   2.090       .  T
C628        C760   1.437       .  S
C629        C757   1.436       .  S
C630        C761   1.431       .  S
C631        C756   1.432       .  S
C632        C749   1.475       .  S
C632        C762   1.470       .  S
C632        C778   1.474       .  S
C632        C752   1.539       .  S
O633        C643   1.265       .  A
O634        V641   1.919       .  S
O634        C644   1.268       .  A
O635        C645   1.257       .  A
O636        V641   1.874       .  S
O636        C646   1.255       .  A
O637        V642   1.917       .  S
O637        C646   1.268       .  A
O638        C645   1.266       .  A
O639        V642   1.884       .  S
O639        C644   1.257       .  A
O640        C643   1.257       .  A
V641        V642   2.090       .  T
C643        C747   1.425       .  S
C644        C750   1.436       .  S
C645        C769   1.429       .  S
C646        C745   1.428       .  S
C647        C739   1.464       .  S
C647        C748   1.461       .  S
C647        C763   1.469       .  S
C647        C741   1.523       .  S
C648        C733   1.467       .  S
C648        C746   1.465       .  S
C648        C758   1.476       .  S
C648        C736   1.530       .  S
O649       V1441   1.915       .  S
O649        C659   1.267       .  A
O650        V657   1.915       .  S
O650        C660   1.267       .  A
O651       V1441   1.882       .  S
O651        C661   1.257       .  A
O652        V657   1.874       .  S
O652        C662   1.256       .  A
O653        V658   1.915       .  S
O653        C662   1.267       .  A
O654       V1442   1.917       .  S
O654        C661   1.268       .  A
O655        V658   1.880       .  S
O655        C660   1.257       .  A
O656       V1442   1.878       .  S
O656        C659   1.256       .  A
V657       O1433   1.914       .  S
V657       O1435   1.880       .  S
V657        V658   2.091       .  T
V658       O1438   1.916       .  S
V658       O1440   1.877       .  S
C659        C731   1.429       .  S
C660        C734   1.431       .  S
C661        C730   1.434       .  S
C662        C740   1.426       .  S
C663        C723   1.476       .  S
C663        C768   1.463       .  S
C663        C779   1.470       .  S
C663        C725   1.529       .  S
C664        C717   1.466       .  S
C664        C732   1.465       .  S
C664        C765   1.465       .  S
C664        C719   1.529       .  S
C665        C711   1.464       .  S
C665        C729   1.473       .  S
C665        C755   1.469       .  S
C665        C713   1.523       .  S
C666        C706   1.466       .  S
C666        C759   1.475       .  S
C666        C782   1.477       .  S
C666        C707   1.531       .  S
O667        C677   1.269       .  A
O668        V675   1.914       .  S
O668        C678   1.267       .  A
O669        C679   1.256       .  A
O670        V675   1.875       .  S
O670        C680   1.256       .  A
O671        V676   1.912       .  S
O671        C680   1.266       .  A
O672        C679   1.270       .  A
O673        V676   1.876       .  S
O673        C678   1.256       .  A
O674        C677   1.253       .  A
V675        V676   2.092       .  T
C677        C718   1.427       .  S
C678        C705   1.428       .  S
C679        C724   1.438       .  S
C680        C712   1.426       .  S
C681        C682   1.547       .  S
C681        C687   1.529   1_565  S
C681        C735   1.526       .  S
C682       C1271   1.377       .  D
C683       C1270   1.373   1_556  D
C683        C720   1.501       .  S
C684       C1472   1.545   1_455  S
C684        H690   1.111       .  S
C685        H691   1.087       .  S
C685       C1470   1.362       .  D
C686       C1469   1.360   1_455  D
C686        C708   1.495       .  S
C688       C1468   1.548       .  S
C688        C773   1.505       .  S
C693        C694   1.549       .  S
C693        C699   1.537       .  S
C693        C697   1.537       .  S
C693        C751   1.536       .  S
C694        H701   1.080       .  S
C694        C695   1.378       .  D
C695        C696   1.541       .  S
C695        C726   1.502       .  S
C696        C700   1.539       .  S
C696        C698   1.538       .  S
C696        H702   1.111       .  S
C697        H703   1.084       .  S
C697        C698   1.371       .  D
C698        C714   1.496       .  S
C699        H704   1.084       .  S
C699        C700   1.372       .  D
C700        C742   1.496       .  S
C705        C706   1.204       .  T
C707        H709   1.087       .  S
C707        C708   1.344       .  D
C708        H710   1.088       .  S
C711        C712   1.203       .  T
C713        H715   1.085       .  S
C713        C714   1.351       .  D
C714        H716   1.085       .  S
C717        C718   1.204       .  T
C719        H721   1.084       .  S
C719        C720   1.355       .  D
C720        H722   1.085       .  S
C723        C724   1.210       .  T
C725        H727   1.085       .  S
C725        C726   1.350       .  D
C726        H728   1.085       .  S
C729        C730   1.207       .  T
C731        C732   1.204       .  T
C733        C734   1.205       .  T
C735        H737   1.086       .  S
C735        C736   1.350       .  D
C736        H738   1.084       .  S
C739        C740   1.203       .  T
C741        H743   1.085       .  S
C741        C742   1.350       .  D
C742        H744   1.085       .  S
C745        C746   1.204       .  T
C747        C748   1.202       .  T
C749        C750   1.208       .  T
C751        H753   1.085       .  S
C751        C752   1.357       .  D
C752        H754   1.083       .  S
C755        C756   1.207       .  T
C757        C758   1.208       .  T
C759        C760   1.209       .  T
C761        C762   1.207       .  T
C763        C764   1.205       .  T
C765        C766   1.203       .  T
C767        C768   1.202       .  T
C769        C770   1.204       .  T
C771        C772   1.206       .  T
C773        H775   1.085       .  S
C773        C774   1.354       .  D
C774        H776   1.084       .  S
C777        C778   1.210       .  T
C779        C780   1.207       .  T
C781        C782   1.210       .  T
C783        C784   1.208       .  T
O785        V793   1.915       .  S
O785        C795   1.268       .  A
O786        C796   1.270       .  A
O787        V793   1.873       .  S
O787        C797   1.255       .  A
O788        C798   1.256       .  A
O789        V794   1.920   1_655  S
O789        C798   1.269       .  A
O790        C797   1.267       .  A
O791        V794   1.879   1_655  S
O791        C796   1.256       .  A
O792        C795   1.256       .  A
C795        C976   1.429       .  S
C796        C973   1.435       .  S
C797        C977   1.428       .  S
C798        C980   1.434       .  S
C799        C966   1.469       .  S
C799        C967   1.470       .  S
C799        C979   1.472       .  S
C799        C970   1.524       .  S
O800        V808   1.919   1_545  S
O800        C810   1.268       .  A
O801       V1200   1.923       .  S
O801        C811   1.270       .  A
O802        V808   1.876   1_545  S
O802        C812   1.256       .  A
O803       V1200   1.876       .  S
O803        C813   1.255       .  A
O804       V1201   1.918       .  S
O804        C813   1.269       .  A
O805        V809   1.920   1_545  S
O805        C812   1.269       .  A
O806       V1201   1.881       .  S
O806        C811   1.256       .  A
O807        V809   1.873   1_545  S
O807        C810   1.255       .  A
V808       O1193   1.920       .  S
V808       O1195   1.873       .  S
V808        V809   2.091       .  T
V809       O1196   1.917       .  S
V809       O1198   1.883       .  S
C810        C963   1.429       .  S
C811        C960   1.439       .  S
C812        C968   1.432       .  S
C813        C962   1.431       .  S
O814       V1214   1.921       .  S
O814        C824   1.269       .  A
O815        V822   1.926       .  S
O815        C825   1.271       .  A
O816       V1214   1.884       .  S
O816        C826   1.257       .  A
O817        V822   1.880       .  S
O817        C827   1.256       .  A
O818        V823   1.929       .  S
O818        C827   1.272       .  A
O819       V1215   1.926       .  S
O819        C826   1.271       .  A
O820        V823   1.881       .  S
O820        C825   1.256       .  A
O821       V1215   1.873       .  S
O821        C824   1.254       .  A
V822       O1206   1.926       .  S
V822       O1208   1.878       .  S
V822        V823   2.089       .  T
V823       O1211   1.928       .  S
V823       O1213   1.881       .  S
C824        C956   1.431       .  S
C825        C953   1.440       .  S
C826        C957   1.442       .  S
C827        C952   1.443       .  S
C828        C945   1.470       .  S
C828        C958   1.479       .  S
C828        C974   1.472       .  S
C828        C948   1.535       .  S
O829       V1033   1.916       .  S
O829        C839   1.268       .  A
O830        V837   1.918   1_554  S
O830        C840   1.268       .  A
O831       V1033   1.876       .  S
O831        C841   1.256       .  A
O832        V837   1.881   1_554  S
O832        C842   1.257       .  A
O833        V838   1.919   1_554  S
O833        C842   1.268       .  A
O834       V1034   1.919       .  S
O834        C841   1.268       .  A
O835        V838   1.879   1_554  S
O835        C840   1.257       .  A
O836       V1034   1.881       .  S
O836        C839   1.257       .  A
V837       O1025   1.916       .  S
V837       O1027   1.878       .  S
V837        V838   2.091       .  T
V838       O1030   1.918       .  S
V838       O1032   1.882       .  S
C839        C943   1.433       .  S
C840        C946   1.432       .  S
C841        C965   1.432       .  S
C842        C941   1.434       .  S
C843        C935   1.468       .  S
C843        C944   1.469       .  S
C843        C959   1.477       .  S
C843        C937   1.528       .  S
C844        C929   1.473       .  S
C844        C942   1.470       .  S
C844        C954   1.480       .  S
C844        C932   1.535       .  S
O845        C855   1.268       .  A
O846        V853   1.922       .  S
O846        C856   1.270       .  A
O847        C857   1.257       .  A
O848        V853   1.875       .  S
O848        C858   1.255       .  A
O849        V854   1.919       .  S
O849        C858   1.269       .  A
O850        C857   1.269       .  A
O851        V854   1.881       .  S
O851        C856   1.257       .  A
O852        C855   1.255       .  A
V853        V854   2.090       .  T
C855        C927   1.429       .  S
C856        C930   1.437       .  S
C857        C926   1.437       .  S
C858        C936   1.431       .  S
C859        C919   1.466       .  S
C859        C964   1.470       .  S
C859        C975   1.466       .  S
C859        C921   1.522       .  S
C860        C913   1.463       .  S
C860        C928   1.466       .  S
C860        C961   1.468       .  S
C860        C915   1.528       .  S
C861        C907   1.465       .  S
C861        C925   1.475       .  S
C861        C951   1.479       .  S
C861        C909   1.535       .  S
C862        C902   1.473       .  S
C862        C955   1.469       .  S
C862        C978   1.466       .  S
C862        C903   1.526       .  S
O863       V1067   1.914       .  S
O863        C873   1.267       .  A
O864        V871   1.922   1_554  S
O864        C874   1.270       .  A
O865       V1067   1.875       .  S
O865        C875   1.255       .  A
O866        V871   1.871   1_554  S
O866        C876   1.254       .  A
O867        V872   1.918   1_554  S
O867        C876   1.268       .  A
O868       V1068   1.916       .  S
O868        C875   1.268       .  A
O869        V872   1.875   1_554  S
O869        C874   1.255       .  A
O870       V1068   1.875       .  S
O870        C873   1.256       .  A
V871       O1059   1.919       .  S
V871       O1061   1.873       .  S
V871        V872   2.091       .  T
V872       O1064   1.917       .  S
V872       O1066   1.868       .  S
C873        C914   1.426       .  S
C874        C901   1.433       .  S
C875        C920   1.429       .  S
C876        C908   1.427       .  S
C877        C878   1.548       .  S
C877        C883   1.537   1_554  S
C877       C1273   1.535       .  S
C877        C931   1.534       .  S
C878       H1081   1.080   1_655  S
C879       C1272   1.554       .  S
C879        C916   1.505       .  S
C880       C1271   1.547   1_545  S
C880       C1078   1.549       .  S
C880        H886   1.111       .  S
C881       C1269   1.535   1_445  S
C881        H887   1.086       .  S
C882       C1076   1.546   1_554  S
C882        C904   1.502       .  S
C883       H1476   1.083       .  S
C883       C1472   1.372       .  D
C884       C1471   1.371       .  D
C884        C969   1.503       .  S
H885       C1074   1.083       .  S
H888       C1471   1.083       .  S
C889        C890   1.533       .  S
C889        C895   1.542       .  S
C889        C893   1.546       .  S
C889        C947   1.532       .  S
C890        H897   1.086       .  S
C890        C891   1.362       .  D
C891        C892   1.542       .  S
C891        C922   1.492       .  S
C892        C896   1.544       .  S
C892        C894   1.543       .  S
C892        H898   1.111       .  S
C893        H899   1.085       .  S
C893        C894   1.377       .  D
C894        C910   1.502       .  S
C895        H900   1.084       .  S
C895        C896   1.378       .  D
C896        C938   1.501       .  S
C901        C902   1.207       .  T
C903        H905   1.085       .  S
C903        C904   1.355       .  D
C904        H906   1.085       .  S
C907        C908   1.204       .  T
C909        H911   1.086       .  S
C909        C910   1.354       .  D
C910        H912   1.085       .  S
C913        C914   1.203       .  T
C915        H917   1.084       .  S
C915        C916   1.357       .  D
C916        H918   1.085       .  S
C919        C920   1.204       .  T
C921        H923   1.088       .  S
C921        C922   1.352       .  D
C922        H924   1.086       .  S
C925        C926   1.209       .  T
C927        C928   1.205       .  T
C929        C930   1.209       .  T
C931        H933   1.085       .  S
C931        C932   1.355       .  D
C932        H934   1.083       .  S
C935        C936   1.206       .  T
C937        H939   1.085       .  S
C937        C938   1.351       .  D
C938        H940   1.085       .  S
C941        C942   1.208       .  T
C943        C944   1.207       .  T
C945        C946   1.206       .  T
C947        H949   1.087       .  S
C947        C948   1.348       .  D
C948        H950   1.088       .  S
C951        C952   1.213       .  T
C953        C954   1.211       .  T
C955        C956   1.206       .  T
C957        C958   1.212       .  T
C959        C960   1.210       .  T
C961        C962   1.205       .  T
C963        C964   1.205       .  T
C965        C966   1.206       .  T
C967        C968   1.207       .  T
C969        H971   1.085       .  S
C969        C970   1.356       .  D
C970        H972   1.083       .  S
C973        C974   1.208       .  T
C975        C976   1.204       .  T
C977        C978   1.204       .  T
C979        C980   1.207       .  T
O981        V989   1.912       .  S
O981        C991   1.266       .  A
O982        C992   1.267       .  A
O983        V989   1.875       .  S
O983        C993   1.255       .  A
O984        C994   1.256       .  A
O985        V990   1.918   1_655  S
O985        C994   1.269       .  A
O986        C993   1.269       .  A
O987        V990   1.875   1_655  S
O987        C992   1.255       .  A
O988        C991   1.256       .  A
C991       C1172   1.426       .  S
C992       C1169   1.427       .  S
C993       C1173   1.431       .  S
C994       C1176   1.434       .  S
C995       C1162   1.469       .  S
C995       C1163   1.471       .  S
C995       C1175   1.472       .  S
C995       C1166   1.526       .  S
O996       V1004   1.918   1_545  S
O996       C1006   1.268       .  A
O997       V1396   1.919       .  S
O997       C1007   1.269       .  A
O998       V1004   1.875   1_545  S
O998       C1008   1.255       .  A
O999       V1396   1.877       .  S
O999       C1009   1.256       .  A
O1000      V1397   1.918       .  S
O1000      C1009   1.268       .  A
O1001      V1005   1.920   1_545  S
O1001      C1008   1.269       .  A
O1002      V1397   1.875       .  S
O1002      C1007   1.255       .  A
O1003      V1005   1.866   1_545  S
O1003      C1006   1.253       .  A
V1004      O1389   1.920       .  S
V1004      O1391   1.873       .  S
V1004      V1005   2.091       .  T
V1005      O1392   1.917       .  S
V1005      O1394   1.874       .  S
C1006      C1159   1.424       .  S
C1007      C1156   1.431       .  S
C1008      C1164   1.433       .  S
C1009      C1158   1.431       .  S
O1010      V1410   1.920   1_545  S
O1010      C1020   1.269       .  A
O1011      V1018   1.924       .  S
O1011      C1021   1.270       .  A
O1012      V1410   1.873   1_545  S
O1012      C1022   1.254       .  A
O1013      V1018   1.875       .  S
O1013      C1023   1.255       .  A
O1014      V1019   1.921       .  S
O1014      C1023   1.269       .  A
O1015      V1411   1.919       .  S
O1015      C1022   1.269       .  A
O1016      V1019   1.882       .  S
O1016      C1021   1.257       .  A
O1017      V1411   1.874       .  S
O1017      C1020   1.255       .  A
V1018      O1402   1.921       .  S
V1018      O1404   1.874       .  S
V1018      V1019   2.090       .  T
V1019      O1407   1.921       .  S
V1019      O1409   1.879       .  S
C1020      C1152   1.430       .  S
C1021      C1149   1.439       .  S
C1022      C1153   1.429       .  S
C1023      C1148   1.432       .  S
C1024      C1141   1.474       .  S
C1024      C1154   1.466       .  S
C1024      C1170   1.465       .  S
C1024      C1144   1.533       .  S
O1025      C1035   1.268       .  A
O1026      V1033   1.918       .  S
O1026      C1036   1.268       .  A
O1027      C1037   1.256       .  A
O1028      V1033   1.874       .  S
O1028      C1038   1.255       .  A
O1029      V1034   1.915       .  S
O1029      C1038   1.268       .  A
O1030      C1037   1.268       .  A
O1031      V1034   1.885       .  S
O1031      C1036   1.258       .  A
O1032      C1035   1.257       .  A
V1033      V1034   2.090       .  T
C1035      C1139   1.434       .  S
C1036      C1142   1.438       .  S
C1037      C1161   1.432       .  S
C1038      C1137   1.427       .  S
C1039      C1131   1.466       .  S
C1039      C1140   1.469       .  S
C1039      C1155   1.469       .  S
C1039      C1133   1.529       .  S
C1040      C1125   1.472       .  S
C1040      C1138   1.464       .  S
C1040      C1150   1.476       .  S
C1040      C1128   1.526       .  S
O1041      C1051   1.267       .  A
O1042      V1049   1.918   1_655  S
O1042      C1052   1.268       .  A
O1043      C1053   1.257       .  A
O1044      V1049   1.873   1_655  S
O1044      C1054   1.256       .  A
O1045      V1050   1.914   1_655  S
O1045      C1054   1.267       .  A
O1046      C1053   1.267       .  A
O1047      V1050   1.878   1_655  S
O1047      C1052   1.256       .  A
O1048      C1051   1.256       .  A
V1049      V1050   2.091       .  T
C1051      C1123   1.427       .  S
C1052      C1126   1.433       .  S
C1053      C1122   1.432       .  S
C1054      C1132   1.426       .  S
C1055      C1115   1.467       .  S
C1055      C1160   1.463       .  S
C1055      C1171   1.462       .  S
C1055      C1117   1.528       .  S
C1056      C1109   1.465       .  S
C1056      C1124   1.464       .  S
C1056      C1157   1.470       .  S
C1056      C1111   1.526       .  S
C1057      C1103   1.468       .  S
C1057      C1121   1.470       .  S
C1057      C1147   1.469       .  S
C1057      C1105   1.519       .  S
C1058      C1098   1.468       .  S
C1058      C1151   1.468       .  S
C1058      C1174   1.468       .  S
C1058      C1099   1.526       .  S
O1059      C1069   1.269       .  A
O1060      V1067   1.914       .  S
O1060      C1070   1.267       .  A
O1061      C1071   1.254       .  A
O1062      V1067   1.872       .  S
O1062      C1072   1.255       .  A
O1063      V1068   1.919       .  S
O1063      C1072   1.268       .  A
O1064      C1071   1.268       .  A
O1065      V1068   1.877       .  S
O1065      C1070   1.256       .  A
O1066      C1069   1.254       .  A
V1067      V1068   2.091       .  T
C1069      C1110   1.426       .  S
C1070      C1097   1.428       .  S
C1071      C1116   1.427       .  S
C1072      C1104   1.429       .  S
C1073      C1074   1.539       .  S
C1073      C1079   1.533       .  S
C1073      C1469   1.526       .  S
C1073      C1127   1.526       .  S
C1075      C1468   1.543       .  S
C1075      C1112   1.499       .  S
C1076      C1467   1.551   1_545  S
C1076      H1082   1.111       .  S
C1077      C1465   1.535   1_445  S
C1077      H1083   1.086       .  S
C1078      C1100   1.500       .  S
C1079      H1280   1.083       .  S
C1079      C1276   1.374       .  D
C1080      C1275   1.372   1_556  D
C1080      C1165   1.502       .  S
H1084      C1275   1.083       .  S
C1085      C1086   1.543       .  S
C1085      C1091   1.544       .  S
C1085      C1089   1.529       .  S
C1085      C1143   1.531       .  S
C1086      H1093   1.084       .  S
C1086      C1087   1.376       .  D
C1087      C1088   1.540       .  S
C1087      C1118   1.497       .  S
C1088      C1092   1.542       .  S
C1088      C1090   1.545       .  S
C1088      H1094   1.111       .  S
C1089      H1095   1.082       .  S
C1089      C1090   1.367       .  D
C1090      C1106   1.501       .  S
C1091      H1096   1.085       .  S
C1091      C1092   1.376       .  D
C1092      C1134   1.496       .  S
C1097      C1098   1.204       .  T
C1099      H1101   1.084       .  S
C1099      C1100   1.358       .  D
C1100      H1102   1.085       .  S
C1103      C1104   1.205       .  T
C1105      H1107   1.082       .  S
C1105      C1106   1.355       .  D
C1106      H1108   1.085       .  S
C1109      C1110   1.204       .  T
C1111      H1113   1.084       .  S
C1111      C1112   1.352       .  D
C1112      H1114   1.085       .  S
C1115      C1116   1.204       .  T
C1117      H1119   1.085       .  S
C1117      C1118   1.351       .  D
C1118      H1120   1.085       .  S
C1121      C1122   1.206       .  T
C1123      C1124   1.204       .  T
C1125      C1126   1.207       .  T
C1127      H1129   1.087       .  S
C1127      C1128   1.351       .  D
C1128      H1130   1.089       .  S
C1131      C1132   1.203       .  T
C1133      H1135   1.088       .  S
C1133      C1134   1.348       .  D
C1134      H1136   1.086       .  S
C1137      C1138   1.203       .  T
C1139      C1140   1.207       .  T
C1141      C1142   1.209       .  T
C1143      H1145   1.087       .  S
C1143      C1144   1.345       .  D
C1144      H1146   1.088       .  S
C1147      C1148   1.207       .  T
C1149      C1150   1.210       .  T
C1151      C1152   1.206       .  T
C1153      C1154   1.205       .  T
C1155      C1156   1.206       .  T
C1157      C1158   1.205       .  T
C1159      C1160   1.203       .  T
C1161      C1162   1.206       .  T
C1163      C1164   1.207       .  T
C1165      H1167   1.085       .  S
C1165      C1166   1.356       .  D
C1166      H1168   1.084       .  S
C1169      C1170   1.203       .  T
C1171      C1172   1.203       .  T
C1173      C1174   1.206       .  T
C1175      C1176   1.207       .  T
O1177      V1185   1.918       .  S
O1177      C1187   1.268       .  A
O1178      C1188   1.269       .  A
O1179      V1185   1.872       .  S
O1179      C1189   1.254       .  A
O1180      C1190   1.257       .  A
O1181      V1186   1.923       .  S
O1181      C1190   1.270       .  A
O1182      C1189   1.270       .  A
O1183      V1186   1.882       .  S
O1183      C1188   1.257       .  A
O1184      C1187   1.254       .  A
C1187      C1368   1.426       .  S
C1188      C1365   1.436       .  S
C1189      C1369   1.432       .  S
C1190      C1372   1.440       .  S
C1191      C1358   1.472       .  S
C1191      C1359   1.472       .  S
C1191      C1371   1.475       .  S
C1191      C1362   1.530       .  S
O1192      V1200   1.921       .  S
O1192      C1202   1.269       .  A
O1193      C1203   1.269       .  A
O1194      V1200   1.875       .  S
O1194      C1204   1.255       .  A
O1195      C1205   1.255       .  A
O1196      C1205   1.268       .  A
O1197      V1201   1.921       .  S
O1197      C1204   1.269       .  A
O1198      C1203   1.257       .  A
O1199      V1201   1.869       .  S
O1199      C1202   1.254       .  A
V1200      V1201   2.090       .  T
C1202      C1355   1.428       .  S
C1203      C1352   1.436       .  S
C1204      C1360   1.433       .  S
C1205      C1354   1.428       .  S
O1206      C1216   1.271       .  A
O1207      V1214   1.922   1_565  S
O1207      C1217   1.270       .  A
O1208      C1218   1.255       .  A
O1209      V1214   1.886   1_565  S
O1209      C1219   1.258       .  A
O1210      V1215   1.927   1_565  S
O1210      C1219   1.271       .  A
O1211      C1218   1.271       .  A
O1212      V1215   1.879   1_565  S
O1212      C1217   1.256       .  A
O1213      C1216   1.256       .  A
V1214      V1215   2.089       .  T
C1216      C1348   1.440       .  S
C1217      C1345   1.436       .  S
C1218      C1349   1.439       .  S
C1219      C1344   1.444       .  S
C1220      C1337   1.462       .  S
C1220      C1350   1.478       .  S
C1220      C1366   1.472       .  S
C1220      C1340   1.531       .  S
O1221      V1425   1.918       .  S
O1221      C1231   1.268       .  A
O1222      V1229   1.912   1_554  S
O1222      C1232   1.266       .  A
O1223      V1425   1.878       .  S
O1223      C1233   1.256       .  A
O1224      V1229   1.881   1_554  S
O1224      C1234   1.258       .  A
O1225      V1230   1.912   1_554  S
O1225      C1234   1.266       .  A
O1226      V1426   1.921       .  S
O1226      C1233   1.269       .  A
O1227      V1230   1.873   1_554  S
O1227      C1232   1.256       .  A
O1228      V1426   1.879       .  S
O1228      C1231   1.256       .  A
V1229      O1417   1.910       .  S
V1229      O1419   1.881       .  S
V1229      V1230   2.092       .  T
V1230      O1422   1.913       .  S
V1230      O1424   1.872       .  S
C1231      C1335   1.433       .  S
C1232      C1338   1.424       .  S
C1233      C1357   1.434       .  S
C1234      C1333   1.430       .  S
C1235      C1327   1.469       .  S
C1235      C1336   1.469       .  S
C1235      C1351   1.474       .  S
C1235      C1329   1.533       .  S
C1236      C1321   1.465       .  S
C1236      C1334   1.466       .  S
C1236      C1346   1.477       .  S
C1236      C1324   1.530       .  S
O1237      C1247   1.268       .  A
O1238      V1245   1.919   1_655  S
O1238      C1248   1.269       .  A
O1239      C1249   1.256       .  A
O1240      V1245   1.873   1_655  S
O1240      C1250   1.254       .  A
O1241      V1246   1.923   1_655  S
O1241      C1250   1.270       .  A
O1242      C1249   1.270       .  A
O1243      V1246   1.870   1_655  S
O1243      C1248   1.254       .  A
O1244      C1247   1.254       .  A
V1245      V1246   2.091       .  T
C1247      C1319   1.427       .  S
C1248      C1322   1.428       .  S
C1249      C1318   1.437       .  S
C1250      C1328   1.431       .  S
C1251      C1311   1.458       .  S
C1251      C1356   1.469       .  S
C1251      C1367   1.464       .  S
C1251      C1313   1.522       .  S
C1252      C1305   1.460       .  S
C1252      C1320   1.465       .  S
C1252      C1353   1.467       .  S
C1252      C1307   1.530       .  S
C1253      C1299   1.470       .  S
C1253      C1317   1.476       .  S
C1253      C1343   1.480       .  S
C1253      C1301   1.535       .  S
C1254      C1294   1.475       .  S
C1254      C1347   1.476       .  S
C1254      C1370   1.473       .  S
C1254      C1295   1.536       .  S
O1255      V1459   1.913       .  S
O1255      C1265   1.267       .  A
O1256      V1263   1.926   1_554  S
O1256      C1266   1.271       .  A
O1257      V1459   1.869       .  S
O1257      C1267   1.254       .  A
O1258      V1263   1.870   1_554  S
O1258      C1268   1.253       .  A
O1259      V1264   1.924   1_554  S
O1259      C1268   1.270       .  A
O1260      V1460   1.909       .  S
O1260      C1267   1.266       .  A
O1261      V1264   1.877   1_554  S
O1261      C1266   1.255       .  A
O1262      V1460   1.870       .  S
O1262      C1265   1.255       .  A
V1263      O1451   1.925       .  S
V1263      O1453   1.873       .  S
V1263      V1264   2.090       .  T
V1264      O1456   1.923       .  S
V1264      O1458   1.869       .  S
C1265      C1306   1.422       .  S
C1266      C1293   1.437       .  S
C1267      C1312   1.418       .  S
C1268      C1300   1.431       .  S
C1269      C1270   1.548   1_655  S
C1269      C1275   1.533   1_565  S
C1269      C1323   1.532       .  S
C1270      H1473   1.079       .  S
C1271      C1308   1.504       .  S
C1272      C1470   1.559       .  S
C1272      H1278   1.110       .  S
C1273      H1279   1.084       .  S
C1274      C1468   1.546   1_554  S
C1274      C1296   1.502       .  S
C1276      C1361   1.510       .  S
H1277      C1466   1.080       .  S
C1281      C1282   1.529       .  S
C1281      C1287   1.542       .  S
C1281      C1285   1.545       .  S
C1281      C1339   1.527       .  S
C1282      H1289   1.086       .  S
C1282      C1283   1.359       .  D
C1283      C1284   1.546       .  S
C1283      C1314   1.492       .  S
C1284      C1288   1.548       .  S
C1284      C1286   1.545       .  S
C1284      H1290   1.111       .  S
C1285      H1291   1.085       .  S
C1285      C1286   1.377       .  D
C1286      C1302   1.504       .  S
C1287      H1292   1.084       .  S
C1287      C1288   1.378       .  D
C1288      C1330   1.504       .  S
C1293      C1294   1.209       .  T
C1295      H1297   1.088       .  S
C1295      C1296   1.352       .  D
C1296      H1298   1.086       .  S
C1299      C1300   1.207       .  T
C1301      H1303   1.086       .  S
C1301      C1302   1.355       .  D
C1302      H1304   1.085       .  S
C1305      C1306   1.201       .  T
C1307      H1309   1.085       .  S
C1307      C1308   1.355       .  D
C1308      H1310   1.085       .  S
C1311      C1312   1.199       .  T
C1313      H1315   1.088       .  S
C1313      C1314   1.356       .  D
C1314      H1316   1.085       .  S
C1317      C1318   1.209       .  T
C1319      C1320   1.204       .  T
C1321      C1322   1.205       .  T
C1323      H1325   1.085       .  S
C1323      C1324   1.355       .  D
C1324      H1326   1.082       .  S
C1327      C1328   1.207       .  T
C1329      H1331   1.085       .  S
C1329      C1330   1.355       .  D
C1330      H1332   1.085       .  S
C1333      C1334   1.205       .  T
C1335      C1336   1.207       .  T
C1337      C1338   1.202       .  T
C1339      H1341   1.087       .  S
C1339      C1340   1.345       .  D
C1340      H1342   1.088       .  S
C1343      C1344   1.213       .  T
C1345      C1346   1.209       .  T
C1347      C1348   1.211       .  T
C1349      C1350   1.211       .  T
C1351      C1352   1.208       .  T
C1353      C1354   1.204       .  T
C1355      C1356   1.205       .  T
C1357      C1358   1.208       .  T
C1359      C1360   1.208       .  T
C1361      H1363   1.085       .  S
C1361      C1362   1.357       .  D
C1362      H1364   1.085       .  S
C1365      C1366   1.208       .  T
C1367      C1368   1.203       .  T
C1369      C1370   1.208       .  T
C1371      C1372   1.210       .  T
O1373      V1381   1.922       .  S
O1373      C1383   1.270       .  A
O1374      C1384   1.270       .  A
O1375      V1381   1.880       .  S
O1375      C1385   1.256       .  A
O1376      C1386   1.255       .  A
O1377      V1382   1.922       .  S
O1377      C1386   1.270       .  A
O1378      C1385   1.270       .  A
O1379      V1382   1.877       .  S
O1379      C1384   1.255       .  A
O1380      C1383   1.255       .  A
C1383      C1564   1.433       .  S
C1384      C1561   1.435       .  S
C1385      C1565   1.437       .  S
C1386      C1568   1.434       .  S
C1387      C1554   1.465       .  S
C1387      C1555   1.471       .  S
C1387      C1567   1.473       .  S
C1387      C1558   1.527       .  S
O1388      V1396   1.917       .  S
O1388      C1398   1.268       .  A
O1389      C1399   1.269       .  A
O1390      V1396   1.876       .  S
O1390      C1400   1.256       .  A
O1391      C1401   1.255       .  A
O1392      C1401   1.268       .  A
O1393      V1397   1.921       .  S
O1393      C1400   1.269       .  A
O1394      C1399   1.254       .  A
O1395      V1397   1.867       .  S
O1395      C1398   1.254       .  A
V1396      V1397   2.091       .  T
C1398      C1551   1.424       .  S
C1399      C1548   1.430       .  S
C1400      C1556   1.433       .  S
C1401      C1550   1.427       .  S
O1402      C1412   1.270       .  A
O1403      V1410   1.922       .  S
O1403      C1413   1.270       .  A
O1404      C1414   1.255       .  A
O1405      V1410   1.872       .  S
O1405      C1415   1.254       .  A
O1406      V1411   1.921   1_565  S
O1406      C1415   1.269       .  A
O1407      C1414   1.269       .  A
O1408      V1411   1.879   1_565  S
O1408      C1413   1.256       .  A
O1409      C1412   1.256       .  A
V1410      V1411   2.090   1_565  T
C1412      C1544   1.436       .  S
C1413      C1541   1.436       .  S
C1414      C1545   1.431       .  S
C1415      C1540   1.431       .  S
C1416      C1533   1.474       .  S
C1416      C1546   1.467       .  S
C1416      C1562   1.478       .  S
C1416      C1536   1.541       .  S
O1417      C1427   1.266       .  A
O1418      V1425   1.919       .  S
O1418      C1428   1.269       .  A
O1419      C1429   1.257       .  A
O1420      V1425   1.878       .  S
O1420      C1430   1.256       .  A
O1421      V1426   1.920       .  S
O1421      C1430   1.269       .  A
O1422      C1429   1.266       .  A
O1423      V1426   1.881       .  S
O1423      C1428   1.257       .  A
O1424      C1427   1.255       .  A
V1425      V1426   2.090       .  T
C1427      C1531   1.422       .  S
C1428      C1534   1.435       .  S
C1429      C1553   1.429       .  S
C1430      C1529   1.433       .  S
C1431      C1523   1.466       .  S
C1431      C1532   1.460       .  S
C1431      C1547   1.469       .  S
C1431      C1525   1.522       .  S
C1432      C1517   1.467       .  S
C1432      C1530   1.470       .  S
C1432      C1542   1.477       .  S
C1432      C1520   1.533       .  S
O1433      C1443   1.267       .  A
O1434      V1441   1.916   1_655  S
O1434      C1444   1.268       .  A
O1435      C1445   1.257       .  A
O1436      V1441   1.877   1_655  S
O1436      C1446   1.256       .  A
O1437      V1442   1.916   1_655  S
O1437      C1446   1.267       .  A
O1438      C1445   1.268       .  A
O1439      V1442   1.878   1_655  S
O1439      C1444   1.256       .  A
O1440      C1443   1.256       .  A
V1441      V1442   2.090       .  T
C1443      C1515   1.429       .  S
C1444      C1518   1.431       .  S
C1445      C1514   1.432       .  S
C1446      C1524   1.429       .  S
C1447      C1507   1.470       .  S
C1447      C1552   1.465       .  S
C1447      C1563   1.471       .  S
C1447      C1509   1.527       .  S
C1448      C1501   1.471       .  S
C1448      C1516   1.465       .  S
C1448      C1549   1.467       .  S
C1448      C1503   1.534       .  S
C1449      C1495   1.460       .  S
C1449      C1513   1.472       .  S
C1449      C1539   1.469       .  S
C1449      C1497   1.524       .  S
C1450      C1490   1.465       .  S
C1450      C1543   1.473       .  S
C1450      C1566   1.475       .  S
C1450      C1491   1.533       .  S
O1451      C1461   1.270       .  A
O1452      V1459   1.915       .  S
O1452      C1462   1.267       .  A
O1453      C1463   1.254       .  A
O1454      V1459   1.870       .  S
O1454      C1464   1.255       .  A
O1455      V1460   1.911       .  S
O1455      C1464   1.266       .  A
O1456      C1463   1.270       .  A
O1457      V1460   1.873       .  S
O1457      C1462   1.255       .  A
O1458      C1461   1.253       .  A
V1459      V1460   2.092       .  T
C1461      C1502   1.432       .  S
C1462      C1489   1.427       .  S
C1463      C1508   1.432       .  S
C1464      C1496   1.421       .  S
C1465      C1466   1.550   1_655  S
C1465      C1471   1.531   1_565  S
C1465      C1519   1.532       .  S
C1467      C1504   1.507       .  S
C1468      H1474   1.111       .  S
C1469      H1475   1.087       .  S
C1470      C1492   1.497       .  S
C1472      C1557   1.504       .  S
C1477      C1478   1.542       .  S
C1477      C1483   1.531       .  S
C1477      C1481   1.541       .  S
C1477      C1535   1.541       .  S
C1478      H1485   1.086       .  S
C1478      C1479   1.371       .  D
C1479      C1480   1.544       .  S
C1479      C1510   1.495       .  S
C1480      C1484   1.545       .  S
C1480      C1482   1.540       .  S
C1480      H1486   1.111       .  S
C1481      H1487   1.084       .  S
C1481      C1482   1.375       .  D
C1482      C1498   1.495       .  S
C1483      H1488   1.083       .  S
C1483      C1484   1.372       .  D
C1484      C1526   1.500       .  S
C1489      C1490   1.204       .  T
C1491      H1493   1.087       .  S
C1491      C1492   1.346       .  D
C1492      H1494   1.088       .  S
C1495      C1496   1.201       .  T
C1497      H1499   1.085       .  S
C1497      C1498   1.350       .  D
C1498      H1500   1.085       .  S
C1501      C1502   1.207       .  T
C1503      H1505   1.084       .  S
C1503      C1504   1.359       .  D
C1504      H1506   1.085       .  S
C1507      C1508   1.207       .  T
C1509      H1511   1.088       .  S
C1509      C1510   1.349       .  D
C1510      H1512   1.086       .  S
C1513      C1514   1.206       .  T
C1515      C1516   1.204       .  T
C1517      C1518   1.206       .  T
C1519      H1521   1.086       .  S
C1519      C1520   1.353       .  D
C1520      H1522   1.083       .  S
C1523      C1524   1.205       .  T
C1525      H1527   1.083       .  S
C1525      C1526   1.354       .  D
C1526      H1528   1.085       .  S
C1529      C1530   1.207       .  T
C1531      C1532   1.201       .  T
C1533      C1534   1.207       .  T
C1535      H1537   1.208       .  S
C1535      C1536   1.334       .  D
C1536      H1538   1.205       .  S
C1539      C1540   1.206       .  T
C1541      C1542   1.209       .  T
C1543      C1544   1.208       .  T
C1545      C1546   1.206       .  T
C1547      C1548   1.205       .  T
C1549      C1550   1.204       .  T
C1551      C1552   1.203       .  T
C1553      C1554   1.204       .  T
C1555      C1556   1.207       .  T
C1557      H1559   1.085       .  S
C1557      C1558   1.355       .  D
C1558      H1560   1.084       .  S
C1561      C1562   1.208       .  T
C1563      C1564   1.207       .  T
C1565      C1566   1.209       .  T
C1567      C1568   1.208       .  T
