geometry optimzed in LAMMPS
_audit_creation_date              2020-12-01 
_audit_creation_method            'lammps2cif' 
_symmetry_space_group_name_H-M    'P1' 
_symmetry_Int_Tables_number       1 
_symmetry_cell_setting            triclinic 
loop_ 
_symmetry_equiv_pos_as_xyz 
  x,y,z 
_cell_length_a                    42.2856228 
_cell_length_b                    42.473330047663815 
_cell_length_c                    43.17418264532073 
_cell_angle_alpha                 89.9630694837526 
_cell_angle_beta                  89.41978466472098 
_cell_angle_gamma                 90.66864202876302 
loop_ 
_atom_site_label 
_atom_site_type_symbol 
_atom_site_fract_x 
_atom_site_fract_y 
_atom_site_fract_z 
_atom_site_charge 
C1          C  0.10735674  0.69402464  0.93811570     0.04300
C2          C  0.08739505  0.67667596  0.95828985    -0.11900
C3          C  0.05592474  0.66974328  0.95008560     0.01800
C4          C  0.04482782  0.67996576  0.92114111    -0.10400
C5          C  0.06494281  0.69708612  0.90089609     0.04300
C6          C  0.09594352  0.70400962  0.90955763    -0.09800
H7          H  0.09648199  0.66824393  0.98012782     0.09900
H8          H  0.02107827  0.67376450  0.91395356     0.07400
H9          H  0.11136194  0.71714566  0.89388246     0.07300
C10         C  0.85673994  0.70149408  0.94245412     0.04300
C11         C  0.87531603  0.68233517  0.96169199    -0.11900
C12         C  0.90591008  0.67313944  0.95203613     0.01800
C13         C  0.91723870  0.68297939  0.92273426    -0.10400
C14         C  0.89845567  0.70182934  0.90351599     0.04300
C15         C  0.86855658  0.71101959  0.91365412    -0.09800
H16         H  0.86580741  0.67420872  0.98372009     0.09900
H17         H  0.94011534  0.67515417  0.91445257     0.07400
H18         H  0.85402620  0.72525125  0.89867723     0.07300
C19         C  0.89291748  0.70357881  0.14440616     0.04300
C20         C  0.86284854  0.71129620  0.13427991    -0.11900
C21         C  0.85186589  0.70053699  0.10582419     0.01800
C22         C  0.87136360  0.68150075  0.08708553    -0.10400
C23         C  0.90215033  0.67387968  0.09672869     0.04300
C24         C  0.91270092  0.68492389  0.12565980    -0.09800
H25         H  0.84764844  0.72551274  0.14889570     0.09900
H26         H  0.86251452  0.67245859  0.06532376     0.07400
H27         H  0.93567831  0.67808279  0.13408986     0.07300
C28         C  0.06061509  0.70204874  0.14853524     0.04300
C29         C  0.09141151  0.71010615  0.13935871    -0.11900
C30         C  0.10378820  0.69946003  0.11120679     0.01800
C31         C  0.08489786  0.68049975  0.09178562    -0.10400
C32         C  0.05363998  0.67242638  0.10043021     0.04300
C33         C  0.04165726  0.68320014  0.12905316    -0.09800
H34         H  0.10612992  0.72414359  0.15460418     0.09900
H35         H  0.09473810  0.67157385  0.07028464     0.07400
H36         H  0.01811903  0.67611265  0.13663000     0.07300
C37         C  0.88643745  0.43847641  0.14953074     0.04300
C38         C  0.85598894  0.43176340  0.13915152    -0.11900
C39         C  0.84640046  0.44147978  0.10988628     0.01800
C40         C  0.86747856  0.45872474  0.09077502    -0.10400
C41         C  0.89833856  0.46581181  0.10081698     0.04300
C42         C  0.90770485  0.45566737  0.13044988    -0.09800
H43         H  0.83985406  0.41810016  0.15366961     0.09900
H44         H  0.85976844  0.46684006  0.06830370     0.07400
H45         H  0.93118724  0.46136091  0.13873833     0.07300
C46         C  0.85185816  0.43551207  0.94321200     0.04300
C47         C  0.86541844  0.42340991  0.91618999    -0.11900
C48         C  0.89646078  0.43126211  0.90778309     0.01800
C49         C  0.91450926  0.45107638  0.92704866    -0.10400
C50         C  0.90125730  0.46337085  0.95444506     0.04300
C51         C  0.86964509  0.45581890  0.96224832    -0.09800
H52         H  0.85150120  0.40817703  0.90131971     0.09900
H53         H  0.93836330  0.45779816  0.92013542     0.07400
H54         H  0.85895563  0.46561430  0.98297157     0.07300
C55         C  0.10266322  0.43240230  0.94724472     0.04300
C56         C  0.09311336  0.42258758  0.91809617    -0.11900
C57         C  0.06412126  0.43170535  0.90636990     0.01800
C58         C  0.04396927  0.45095490  0.92437659    -0.10400
C59         C  0.05300535  0.46069403  0.95438086     0.04300
C60         C  0.08273962  0.45142393  0.96550297    -0.09800
H61         H  0.10878087  0.40826184  0.90406449     0.09900
H62         H  0.02183430  0.45885178  0.91481822     0.07400
H63         H  0.09076495  0.45969791  0.98785730     0.07300
C64         C  0.05559898  0.43329712  0.15034104     0.04300
C65         C  0.03669264  0.45145162  0.13060826    -0.11900
C66         C  0.04875436  0.46188682  0.10176954     0.01800
C67         C  0.07984683  0.45388557  0.09308060    -0.10400
C68         C  0.09870809  0.43586936  0.11298465     0.04300
C69         C  0.08639399  0.42588622  0.14145056    -0.09800
H70         H  0.01313647  0.45809298  0.13802534     0.09900
H71         H  0.08967433  0.46240211  0.07131538     0.07400
H72         H  0.10102765  0.41241608  0.15699664     0.07300
O73         O  0.04340427  0.61784593  0.96370786    -0.74100
O74         O  0.01645334  0.65694609  0.98874674    -0.53000
C75         C  0.03716256  0.64692562  0.96883791     0.79600
O76         O  0.91273115  0.51606470  0.96651477    -0.58700
O77         O  0.94019489  0.47774982  0.99172781    -0.51800
C78         C  0.91910974  0.48713681  0.97238272     0.71600
O79         O  0.91727594  0.62032952  0.96342513    -0.73300
O80         O  0.94412107  0.65847295  0.99026482    -0.53900
C81         C  0.92369025  0.64928684  0.96988486     0.77600
O82         O  0.04192733  0.51367198  0.96538782    -0.58400
O83         O  0.01312839  0.47611771  0.99170286    -0.51600
C84         C  0.03456027  0.48485478  0.97163118     0.74200
Zr85       Zr  0.02583282  0.56620641  0.98152873     2.54700
O86         O  0.02512973  0.56488427  0.92515334    -0.79000
O87         O  0.08316820  0.56532836  0.98684090    -0.92400
Zr88       Zr  0.93273132  0.56798979  0.98077342     2.64700
O89         O  0.93760394  0.56503967  0.92457723    -0.97400
O90         O  0.87533637  0.57073312  0.98374017    -0.79400
O91         O  0.98016703  0.59832788  0.98025286    -0.82800
O92         O  0.97836346  0.53597750  0.98093328    -2.17500
O93         O  0.03841260  0.51451881  0.08950842    -0.66200
O94         O  0.01125898  0.47630580  0.06302916    -0.50700
C95         C  0.03149128  0.48557231  0.08349213     0.72600
O96         O  0.91323410  0.62119618  0.08562351    -0.59100
O97         O  0.94305590  0.65887565  0.06063189    -0.51100
C98         C  0.92076949  0.64998155  0.07966195     0.74400
O99         O  0.91261601  0.51754222  0.08859078    -0.70500
O100        O  0.93888982  0.47835430  0.06303901    -0.49200
C101        C  0.91815433  0.48845169  0.08290217     0.75800
O102        O  0.04183738  0.61976324  0.08828340    -0.65800
O103        O  0.01551274  0.65808880  0.06192116    -0.53000
C104        C  0.03570496  0.64872969  0.08223196     0.74200
Zr105      Zr  0.02433879  0.56731035  0.07231272     2.77500
O106        O  0.02244707  0.56824487  0.12872374    -0.96600
O107        O  0.08178147  0.56494330  0.06919377    -0.77400
Zr108      Zr  0.93169557  0.56890652  0.07196280     2.70100
O109        O  0.93990890  0.57064716  0.12770504    -0.78600
O110        O  0.87415744  0.56623938  0.07515947    -0.97700
Zr111      Zr  0.97982030  0.63046951  0.02576023     2.21500
Zr112      Zr  0.97681883  0.50477788  0.02713449     2.11100
O113        O  0.97705455  0.53676820  0.07286025    -2.46400
O114        O  0.97879763  0.59958599  0.07221350    -0.78400
O115        O  0.02471468  0.53533474  0.02726752    -0.70600
O116        O  0.93223782  0.59943745  0.02597028    -2.31600
O117        O  0.02613708  0.59827947  0.02652611    -2.27800
O118        O  0.93094192  0.53724808  0.02666495    -0.72400
H119        H  0.97825678  0.52259985  0.96270294     0.79600
H120        H  0.91371962  0.61277954  0.02562687     0.80700
H121        H  0.97635093  0.52380383  0.09128883     0.82900
H122        H  0.04496756  0.61132005  0.02650094     0.80500
H123        H  0.86978596  0.56099026  0.00394738     0.43600
H124        H  0.86902455  0.57150008  0.09696709     0.42500
H125        H  0.94123794  0.59331681  0.13292203     0.42200
H126        H  0.04424479  0.57395749  0.13495991     0.40200
H127        H  0.08845447  0.56041073  0.09064464     0.43300
H128        H  0.08860110  0.58454195  0.99871543     0.38100
H129        H  0.04614575  0.57315283  0.91860642     0.44200
H130        H  0.91562822  0.56646704  0.91704656     0.40600
H131        H  0.00974282  0.58696625  0.13400761     0.45500
H132        H  0.09151072  0.56952032  0.96570945     0.44200
H133        H  0.94772074  0.58523741  0.91833047     0.44400
H134        H  0.86677310  0.58449815  0.06306187     0.44700
C135        C  0.60126767  0.97957547  0.14986112     0.04300
C136        C  0.58383620  0.99975741  0.13068073    -0.11900
C137        C  0.57633381  0.99070962  0.10011873     0.01800
C138        C  0.58617537  0.96100692  0.08929809    -0.10400
C139        C  0.60339588  0.94088929  0.10870006     0.04300
C140        C  0.61065808  0.95031746  0.13870084    -0.09800
H141        H  0.57588604  0.02218578  0.13960642     0.09900
H142        H  0.57997012  0.95332279  0.06619172     0.07400
H143        H  0.62415293  0.93484644  0.15342709     0.07300
C144        C  0.60579660  0.98657870  0.90158323     0.04300
C145        C  0.61633043  0.95730261  0.91150944    -0.11900
C146        C  0.60844392  0.94603824  0.94096107     0.01800
C147        C  0.58981393  0.96453271  0.96105633    -0.10400
C148        C  0.57914149  0.99430398  0.95153602     0.04300
C149        C  0.58712485  0.00511044  0.92151611    -0.09800
H150        H  0.63045032  0.94296197  0.89599770     0.09900
H151        H  0.58295994  0.95539348  0.98361474     0.07400
H152        H  0.57837074  0.02752773  0.91347622     0.07300
C153        C  0.61014558  0.18953957  0.94095222     0.04300
C154        C  0.61797927  0.17904742  0.91133147    -0.11900
C155        C  0.60798608  0.14944013  0.90116542     0.01800
C156        C  0.58968243  0.12994107  0.92108511    -0.10400
C157        C  0.58179298  0.14016631  0.95129368     0.04300
C158        C  0.59214142  0.17012320  0.96098891    -0.09800
H159        H  0.63149852  0.19429891  0.89584055     0.09900
H160        H  0.58096481  0.10739852  0.91283639     0.07400
H161        H  0.58519264  0.17884517  0.98361618     0.07300
C162        C  0.60591748  0.19259276  0.11328340     0.04300
C163        C  0.61410125  0.18147567  0.14258837    -0.11900
C164        C  0.60508705  0.15123288  0.15225550     0.01800
C165        C  0.58752263  0.13166191  0.13215887    -0.10400
C166        C  0.57916983  0.14227556  0.10235272     0.04300
C167        C  0.58833654  0.17300403  0.09322328    -0.09800
H168        H  0.62767112  0.19646465  0.15798031     0.09900
H169        H  0.57991804  0.10849288  0.13992866     0.07400
H170        H  0.58126088  0.18192050  0.07084528     0.07300
C171        C  0.34165734  0.19487416  0.94853880     0.04300
C172        C  0.36174469  0.17530405  0.96569667    -0.11900
C173        C  0.37026443  0.14541354  0.95431008     0.01800
C174        C  0.35868939  0.13573217  0.92520005    -0.10400
C175        C  0.33856519  0.15549932  0.90811331     0.04300
C176        C  0.33032485  0.18479644  0.92002855    -0.09800
H177        H  0.37106289  0.18353692  0.98757430     0.09900
H178        H  0.36567128  0.11324268  0.91565776     0.07400
H179        H  0.31536264  0.20021047  0.90668548     0.07300
C180        C  0.33486740  0.98640552  0.90838350     0.04300
C181        C  0.35423209  0.00553328  0.92711459    -0.11900
C182        C  0.36774382  0.99317898  0.95412821     0.01800
C183        C  0.36147188  0.96144241  0.96211034    -0.10400
C184        C  0.34166476  0.94246464  0.94349005     0.04300
C185        C  0.32876804  0.95520807  0.91670456    -0.09800
H186        H  0.35980799  0.02944360  0.91996675     0.09900
H187        H  0.37221981  0.95145387  0.98250923     0.07400
H188        H  0.31434816  0.94048550  0.90179302     0.07300
C189        C  0.33988974  0.97946203  0.14829690     0.04300
C190        C  0.35741914  0.00073859  0.12942341    -0.11900
C191        C  0.36743486  0.99178066  0.09935700     0.01800
C192        C  0.36004935  0.96116835  0.08887633    -0.10400
C193        C  0.34272028  0.94009355  0.10785748     0.04300
C194        C  0.33277915  0.94941692  0.13726618    -0.09800
H195        H  0.36382160  0.02375280  0.13835100     0.09900
H196        H  0.36850236  0.95343636  0.06638008     0.07400
H197        H  0.31939714  0.93307110  0.15176165     0.07300
C198        C  0.34210208  0.19321198  0.11163860     0.04300
C199        C  0.33229134  0.18112206  0.14011803    -0.11900
C200        C  0.34073222  0.15099989  0.14910159     0.01800
C201        C  0.35922875  0.13221305  0.12940228    -0.10400
C202        C  0.36942041  0.14378647  0.10040458     0.04300
C203        C  0.36100865  0.17468374  0.09167842    -0.09800
H204        H  0.31807625  0.19541618  0.15560363     0.09900
H205        H  0.36619137  0.10896979  0.13692466     0.07400
H206        H  0.36952927  0.18442130  0.06990467     0.07300
O207        O  0.52430924  0.00343546  0.08769537    -0.74100
O208        O  0.56391056  0.03027296  0.06213689    -0.53000
C209        C  0.55362691  0.00946847  0.08192973     0.79600
O210        O  0.42091942  0.00517858  0.96497893    -0.58700
O211        O  0.38276741  0.03291122  0.99083608    -0.51800
C212        C  0.39188237  0.01173486  0.97121247     0.71600
O213        O  0.52637670  0.00568566  0.96409362    -0.73300
O214        O  0.56506319  0.03152292  0.99117413    -0.53900
C215        C  0.55552115  0.01160366  0.97044773     0.77600
O216        O  0.42007400  0.00387754  0.08699087    -0.58400
O217        O  0.38217631  0.03256208  0.06259624    -0.51600
C218        C  0.39116513  0.01100848  0.08183732     0.74200
Zr219      Zr  0.47271632  0.02129999  0.07122369     2.54700
O220        O  0.47250331  0.96395479  0.07017180    -0.79000
O221        O  0.47140970  0.02555607  0.12744794    -0.92400
Zr222      Zr  0.47377803  0.02305730  0.97992875     2.64700
O223        O  0.47463704  0.96587037  0.97582449    -0.97400
O224        O  0.47360867  0.03287010  0.92428110    -0.79400
O225        O  0.50455968  0.02131382  0.02567360    -0.82800
O226        O  0.44201510  0.02176692  0.02557939    -2.17500
O227        O  0.42206063  0.13103163  0.08907797    -0.66200
O228        O  0.38339636  0.10547053  0.06175201    -0.50700
C229        C  0.39295973  0.12563295  0.08225088     0.72600
O230        O  0.52884052  0.13019231  0.96461521    -0.59100
O231        O  0.56655204  0.10253302  0.99049352    -0.51100
C232        C  0.55771276  0.12294829  0.97010989     0.74400
O233        O  0.42325234  0.13221270  0.96466772    -0.70500
O234        O  0.38415035  0.10570815  0.99135912    -0.49200
C235        C  0.39394676  0.12629169  0.97114707     0.75800
O236        O  0.52668465  0.13032529  0.08962016    -0.65800
O237        O  0.56529841  0.10377925  0.06324072    -0.53000
C238        C  0.55579854  0.12412541  0.08366739     0.74200
Zr239      Zr  0.47433429  0.11362551  0.07279096     2.77500
O240        O  0.47365981  0.17092977  0.07179072    -0.96600
O241        O  0.47342406  0.10881864  0.12901438    -0.77400
Zr242      Zr  0.47559405  0.11536369  0.98172930     2.70100
O243        O  0.47773205  0.17249034  0.98680230    -0.78600
O244        O  0.47823513  0.11532481  0.92534296    -0.97700
Zr245      Zr  0.53744400  0.06764712  0.02697940     2.21500
Zr246      Zr  0.41092535  0.06870259  0.02649209     2.11100
O247        O  0.44369438  0.11513062  0.02717219    -2.46400
O248        O  0.50659672  0.11472248  0.02740517    -0.78400
O249        O  0.44192989  0.06764256  0.07251732    -0.70600
O250        O  0.50614874  0.06885537  0.98090812    -2.31600
O251        O  0.50500432  0.06720056  0.07278247    -2.27800
O252        O  0.44300474  0.06944092  0.98034669    -0.72400
H253        H  0.42855788  0.00323545  0.02537448     0.79600
H254        H  0.51954548  0.06891278  0.96267427     0.80700
H255        H  0.43090016  0.13379641  0.02739024     0.82900
H256        H  0.51786911  0.06678462  0.09111943     0.80500
H257        H  0.49557961  0.02921628  0.91713007     0.43600
H258        H  0.46311644  0.09862870  0.91900446     0.42500
H259        H  0.45577446  0.17877805  0.99170923     0.42200
H260        H  0.47665401  0.17728836  0.09363724     0.40200
H261        H  0.48209088  0.12911851  0.13660548     0.43300
H262        H  0.46533648  0.00421089  0.13477693     0.38100
H263        H  0.47759222  0.95763077  0.09162045     0.44200
H264        H  0.45761030  0.95834834  0.98999871     0.40600
H265        H  0.49361589  0.17722673  0.06118204     0.45500
H266        H  0.45271039  0.03862555  0.13208730     0.44200
H267        H  0.46670321  0.96122043  0.95479428     0.44400
H268        H  0.46820196  0.13523810  0.91901826     0.44700
C269        C  0.09727870  0.99113092  0.66023016     0.04300
C270        C  0.07796636  0.00870531  0.64029829    -0.11900
C271        C  0.04790044  0.99698561  0.63171480     0.01800
C272        C  0.03774000  0.96734735  0.64314549    -0.10400
C273        C  0.05722146  0.95003497  0.66313893     0.04300
C274        C  0.08662615  0.96211561  0.67138560    -0.09800
H275        H  0.08653564  0.03099712  0.63109218     0.09900
H276        H  0.01527261  0.95743756  0.63590883     0.07400
H277        H  0.10181971  0.94834641  0.68615741     0.07300
C278        C  0.85173906  0.98168986  0.66241005     0.04300
C279        C  0.87064421  0.00128120  0.64329932    -0.11900
C280        C  0.90091989  0.99167863  0.63358363     0.01800
C281        C  0.91189105  0.96198350  0.64305019    -0.10400
C282        C  0.89297127  0.94241896  0.66232652     0.04300
C283        C  0.86308486  0.95252245  0.67186648    -0.09800
H284        H  0.86146922  0.02358648  0.63541086     0.09900
H285        H  0.93472684  0.95384262  0.63497878     0.07400
H286        H  0.84844050  0.93746698  0.68654062     0.07300
C287        C  0.89112535  0.19509402  0.65495064     0.04300
C288        C  0.91055044  0.17439484  0.63812980    -0.11900
C289        C  0.89875668  0.14480773  0.62881221     0.01800
C290        C  0.86748158  0.13613876  0.63703722    -0.10400
C291        C  0.84831246  0.15687156  0.65425795     0.04300
C292        C  0.86014038  0.18642153  0.66244058    -0.09800
H293        H  0.93453179  0.18145951  0.63204996     0.09900
H294        H  0.85798504  0.11352565  0.62983253     0.07400
H295        H  0.84552642  0.20231806  0.67587481     0.07300
C296        C  0.06434684  0.19182788  0.65342152     0.04300
C297        C  0.04348231  0.17407255  0.63476590    -0.11900
C298        C  0.05145055  0.14329538  0.62530030     0.01800
C299        C  0.08068710  0.13078702  0.63467064    -0.10400
C300        C  0.10138539  0.14896867  0.65301709     0.04300
C301        C  0.09317711  0.17925415  0.66178972    -0.09800
H302        H  0.02127515  0.18415114  0.62767568     0.09900
H303        H  0.08751563  0.10742010  0.62732927     0.07400
H304        H  0.10931302  0.19311031  0.67583049     0.07300
C305        C  0.88163531  0.18046373  0.39102794     0.04300
C306        C  0.85155588  0.16856498  0.38507636    -0.11900
C307        C  0.84140886  0.14011631  0.39801815     0.01800
C308        C  0.86168820  0.12311876  0.41734209    -0.10400
C309        C  0.89240402  0.13466174  0.42338975     0.04300
C310        C  0.90219648  0.16362094  0.41028164    -0.09800
H311        H  0.83580521  0.18164151  0.37026785     0.09900
H312        H  0.85354507  0.10120508  0.42772149     0.07400
H313        H  0.92534387  0.17332831  0.41552414     0.07300
C314        C  0.84159651  0.98074561  0.39841770     0.04300
C315        C  0.86068784  0.00001641  0.41766541    -0.11900
C316        C  0.89119230  0.99017649  0.42659259     0.01800
C317        C  0.90191924  0.96055132  0.41630697    -0.10400
C318        C  0.88281229  0.94133064  0.39727840     0.04300
C319        C  0.85297386  0.95164574  0.38858705    -0.09800
H320        H  0.85168368  0.02229307  0.42593445     0.09900
H321        H  0.92495955  0.95234601  0.42324734     0.07400
H322        H  0.83834243  0.93672211  0.37406620     0.07300
C323        C  0.09934356  0.98259476  0.39965264     0.04300
C324        C  0.07963554  0.00148576  0.41819497    -0.11900
C325        C  0.04813165  0.99207744  0.42453484     0.01800
C326        C  0.03686017  0.96326245  0.41241725    -0.10400
C327        C  0.05688435  0.94428576  0.39418046     0.04300
C328        C  0.08783463  0.95416112  0.38795398    -0.09800
H329        H  0.08877203  0.02338616  0.42760171     0.09900
H330        H  0.01305892  0.95517461  0.41791208     0.07400
H331        H  0.10309182  0.93964748  0.37369475     0.07300
C332        C  0.05561347  0.18284179  0.38720182     0.04300
C333        C  0.03593170  0.16359814  0.40600790    -0.11900
C334        C  0.04710672  0.13502671  0.41804344     0.01800
C335        C  0.07821315  0.12568525  0.41062546    -0.10400
C336        C  0.09763909  0.14457486  0.39120776     0.04300
C337        C  0.08617427  0.17297950  0.37983387    -0.09800
H338        H  0.01249941  0.17156528  0.41239710     0.09900
H339        H  0.08747247  0.10419732  0.42036762     0.07400
H340        H  0.10147990  0.18789660  0.36566437     0.07300
O341        O  0.91139787  0.00262613  0.58128271    -0.74100
O342        O  0.93796655  0.03196022  0.61738997    -0.53000
C343        C  0.91817309  0.00998122  0.60936813     0.79600
O344        O  0.03673413  0.00566856  0.47599938    -0.58700
O345        O  0.00643470  0.02762933  0.43818551    -0.51800
C346        C  0.02905196  0.00974797  0.44753501     0.71600
O347        O  0.03466399  0.00558428  0.57946432    -0.73300
O348        O  0.00921799  0.03470346  0.61644951    -0.53900
C349        C  0.02922826  0.01354493  0.60780754     0.77600
O350        O  0.90395639  0.00380922  0.47822011    -0.58400
O351        O  0.93239437  0.02775328  0.43928939    -0.51600
C352        C  0.91034925  0.00873417  0.44934093     0.74200
Zr353      Zr  0.92466204  0.01982011  0.52882017     2.54700
O354        O  0.92957565  0.96285754  0.52622697    -0.79000
O355        O  0.86709194  0.01923739  0.53254741    -0.92400
Zr356      Zr  0.01762102  0.02033452  0.52736093     2.64700
O357        O  0.01255251  0.96312422  0.52639487    -0.97400
O358        O  0.07511894  0.02094962  0.52954269    -0.79400
O359        O  0.97148292  0.02096662  0.55891937    -0.82800
O360        O  0.97079606  0.01839696  0.49729010    -2.17500
O361        O  0.90635217  0.12612072  0.47507329    -0.66200
O362        O  0.93318595  0.09881839  0.43762006    -0.50700
C363        C  0.91214709  0.11880989  0.44669681     0.72600
O364        O  0.03635029  0.13206910  0.57403289    -0.59100
O365        O  0.01084079  0.10525276  0.61313860    -0.51100
C366        C  0.03131284  0.12578956  0.60287529     0.74400
O367        O  0.03578230  0.12547891  0.47060392    -0.63300
O368        O  0.00660068  0.09848937  0.43475527    -0.49200
C369        C  0.02859813  0.11831476  0.44254339     0.75800
O370        O  0.91008137  0.13094172  0.57761141    -0.65800
O371        O  0.93736402  0.10572106  0.61558994    -0.53000
C372        C  0.91673099  0.12576045  0.60611424     0.74200
Zr373      Zr  0.92536785  0.11247408  0.52633870     2.77500
O374        O  0.92528964  0.16983905  0.52445810    -0.96600
O375        O  0.86794363  0.10768616  0.52907532    -0.77400
Zr376      Zr  0.01868465  0.11292851  0.52353882     2.70100
O377        O  0.01877687  0.17007252  0.51903266    -0.78600
O378        O  0.07613570  0.10844311  0.52470143    -0.97700
Zr379      Zr  0.97267929  0.06888134  0.58816004     2.21500
Zr380      Zr  0.97025649  0.06419573  0.46488674     2.11100
O381        O  0.97137599  0.11224248  0.49426029    -2.46400
O382        O  0.97263373  0.11462920  0.55559141    -0.78400
O383        O  0.92391631  0.06527533  0.49701256    -0.70600
O384        O  0.01906710  0.06786933  0.55594641    -2.31600
O385        O  0.92502949  0.06712889  0.55838686    -2.27800
O386        O  0.01775436  0.06541887  0.49474410    -0.72400
H387        H  0.97054521  0.99950794  0.48486977     0.79600
H388        H  0.03792238  0.06836558  0.56836809     0.80700
H389        H  0.97125748  0.13026275  0.48061833     0.82900
H390        H  0.90666500  0.06736814  0.57190556     0.80500
H391        H  0.08164400  0.03950322  0.51703412     0.43600
H392        H  0.08306096  0.10685595  0.50279515     0.42500
H393        H  0.99806153  0.17644576  0.52768178     0.42200
H394        H  0.94035246  0.17653775  0.54064603     0.40200
H395        H  0.86080715  0.12746723  0.53889941     0.43300
H396        H  0.86035750  0.03559112  0.51773177     0.38100
H397        H  0.94838700  0.95819918  0.53881563     0.44200
H398        H  0.03216132  0.95583264  0.51608466     0.40600
H399        H  0.93601993  0.17539436  0.50468032     0.45500
H400        H  0.86209901  0.02818167  0.55316939     0.44200
H401        H  0.01466831  0.95634638  0.54820960     0.44400
H402        H  0.08387665  0.12940421  0.53146302     0.44700
C403        C  0.93861748  0.39013645  0.25881473    -0.09700
C404        C  0.96725045  0.40452787  0.25083365    -0.03600
C405        C  0.99596081  0.39272803  0.26074455    -0.09700
C406        C  0.99627433  0.36893472  0.28352526     0.11300
C407        C  0.96712738  0.35575345  0.29417358    -0.01500
C408        C  0.93808748  0.36582335  0.28120513     0.11100
C409        C  0.90969914  0.35099727  0.29046008    -0.11500
C410        C  0.90972712  0.32664671  0.31222731    -0.11500
C411        C  0.93818195  0.31625605  0.32507864     0.11100
C412        C  0.96721741  0.33085729  0.31601120    -0.01500
C413        C  0.02484466  0.35741342  0.29508268    -0.11600
C414        C  0.02493253  0.33308467  0.31684016    -0.11600
C415        C  0.99645900  0.31932297  0.32735865     0.11300
C416        C  0.99614165  0.29374467  0.34839352    -0.09700
C417        C  0.96730088  0.28109038  0.35817981    -0.03600
C418        C  0.93873522  0.29102756  0.34625596    -0.09700
H419        H  0.88733640  0.35830950  0.28096897     0.08500
H420        H  0.88734576  0.31584063  0.31887495     0.08500
H421        H  0.04729010  0.36728082  0.28731185     0.08700
H422        H  0.04743050  0.32487518  0.32524288     0.08700
H423        H  0.96746969  0.42202446  0.23242544     0.05200
H424        H  0.96719861  0.26058571  0.37328290     0.05200
C425        C  0.29998591  0.03355625  0.25998474    -0.09700
C426        C  0.31206041  0.06177846  0.24841927    -0.03600
C427        C  0.30152025  0.09063679  0.25912103    -0.09700
C428        C  0.28131004  0.09197712  0.28522209     0.11300
C429        C  0.27129183  0.06339772  0.29958822    -0.01500
C430        C  0.27966660  0.03391385  0.28624632     0.11100
C431        C  0.26711816  0.00604875  0.29912668    -0.11500
C432        C  0.24710290  0.00701193  0.32510744    -0.11500
C433        C  0.23909299  0.03585734  0.33893239     0.11100
C434        C  0.25104783  0.06434349  0.32592473    -0.01500
C435        C  0.27035747  0.12080821  0.29679472    -0.11600
C436        C  0.24994325  0.12167058  0.32239530    -0.11600
C437        C  0.24007131  0.09375553  0.33721590     0.11300
C438        C  0.21814980  0.09423884  0.36217531    -0.09700
C439        C  0.21124918  0.06626710  0.37788415    -0.03600
C440        C  0.21788374  0.03722752  0.36444283    -0.09700
H441        H  0.27287909  0.98338449  0.28921991     0.08500
H442        H  0.23791416  0.98504275  0.33447747     0.08500
H443        H  0.27754254  0.14283497  0.28604473     0.08700
H444        H  0.24181612  0.14429444  0.33062995     0.08700
H445        H  0.32687839  0.06130882  0.22767902     0.05200
H446        H  0.19373044  0.06682198  0.39646786     0.05200
C447        C  0.21807488  0.40674598  0.06063964    -0.09700
C448        C  0.20902381  0.41857893  0.03201397    -0.03600
C449        C  0.21845997  0.40448228  0.00448664    -0.09700
C450        C  0.24266595  0.38194524  0.00477008     0.11300
C451        C  0.25510234  0.37204020  0.03358922    -0.01500
C452        C  0.24211878  0.38374314  0.06179105     0.11100
C453        C  0.25243197  0.37117351  0.09003836    -0.11500
C454        C  0.27497046  0.34729552  0.09062511    -0.11500
C455        C  0.28822940  0.33564200  0.06300722     0.11100
C456        C  0.27834414  0.34825057  0.03419982    -0.01500
C457        C  0.25372628  0.36826500  0.97719018    -0.11600
C458        C  0.27697348  0.34524800  0.97775494    -0.11600
C459        C  0.28954585  0.33501783  0.00594482     0.11300
C460        C  0.31213292  0.31081968  0.00685211    -0.09700
C461        C  0.32414489  0.30145327  0.03514655    -0.03600
C462        C  0.31059397  0.31106821  0.06303966    -0.09700
H463        H  0.24281834  0.37961173  0.11180568     0.08500
H464        H  0.28212715  0.33801734  0.11281665     0.08500
H465        H  0.24448582  0.37548269  0.95501454     0.08700
H466        H  0.28504916  0.33535361  0.95599593     0.08700
H467        H  0.18944996  0.43492659  0.03122665     0.05200
H468        H  0.34033066  0.28174426  0.03537107     0.05200
C469        C  0.63718498  0.03194320  0.26386589    -0.09700
C470        C  0.62664441  0.06081700  0.25309454    -0.03600
C471        C  0.63950683  0.08910793  0.26331569    -0.09700
C472        C  0.66038199  0.08901671  0.28877368     0.11300
C473        C  0.66850846  0.05975002  0.30268678    -0.01500
C474        C  0.65784697  0.03094856  0.28943041     0.11100
C475        C  0.66860304  0.00231159  0.30159234    -0.11500
C476        C  0.68935393  0.00185535  0.32670766    -0.11500
C477        C  0.69983466  0.03001024  0.34049533     0.11100
C478        C  0.68912698  0.05924206  0.32843960    -0.01500
C479        C  0.67369267  0.11701463  0.30029837    -0.11600
C480        C  0.69392749  0.11650096  0.32569353    -0.11600
C481        C  0.70148282  0.08797763  0.34024500     0.11300
C482        C  0.72242661  0.08717030  0.36550269    -0.09700
C483        C  0.72845416  0.05864238  0.37995675    -0.03600
C484        C  0.72152111  0.03012887  0.36550796    -0.09700
H485        H  0.66088635  0.98011322  0.29173058     0.08500
H486        H  0.69712943  0.97936303  0.33546760     0.08500
H487        H  0.66823610  0.13947843  0.28987297     0.08700
H488        H  0.70356164  0.13859539  0.33411487     0.08700
H489        H  0.61153488  0.06115862  0.23285681     0.05200
H490        H  0.74558228  0.05874180  0.39855468     0.05200
C491        C  0.94417339  0.73683357  0.26035993    -0.09700
C492        C  0.97279464  0.72319527  0.25217994    -0.03600
C493        C  0.00149294  0.73583063  0.26184237    -0.09700
C494        C  0.00165549  0.75906232  0.28533404     0.11300
C495        C  0.97236423  0.77051917  0.29704119    -0.01500
C496        C  0.94343060  0.76004825  0.28384595     0.11100
C497        C  0.91491502  0.77365763  0.29371939    -0.11500
C498        C  0.91466341  0.79690802  0.31669123    -0.11500
C499        C  0.94295995  0.80744044  0.33021690     0.11100
C500        C  0.97215673  0.79438588  0.32002388    -0.01500
C501        C  0.03009278  0.77177893  0.29660391    -0.11600
C502        C  0.02990424  0.79544216  0.31907349    -0.11600
C503        C  0.00127405  0.80688568  0.33109208     0.11300
C504        C  0.00074900  0.83118320  0.35339108    -0.09700
C505        C  0.97198917  0.84096830  0.36564695    -0.03600
C506        C  0.94329631  0.83126910  0.35319467    -0.09700
H507        H  0.89263816  0.76612590  0.28383249     0.08500
H508        H  0.89219611  0.80663789  0.32387211     0.08500
H509        H  0.05263367  0.76343244  0.28799929     0.08700
H510        H  0.05231601  0.80467062  0.32719631     0.08700
H511        H  0.97301297  0.70634043  0.23322849     0.05200
H512        H  0.97204313  0.86035534  0.38209556     0.05200
C513        C  0.29554490  0.04421146  0.79864722    -0.09700
C514        C  0.30674259  0.07275885  0.80986779    -0.03600
C515        C  0.29712573  0.10129411  0.79779426    -0.09700
C516        C  0.27756269  0.10167886  0.77153915     0.11300
C517        C  0.26807505  0.07255642  0.75799618    -0.01500
C518        C  0.27652524  0.04354937  0.77200657     0.11100
C519        C  0.26530446  0.01509930  0.75945441    -0.11500
C520        C  0.24578633  0.01506651  0.73352805    -0.11500
C521        C  0.23700471  0.04346820  0.71950054     0.11100
C522        C  0.24845521  0.07247950  0.73165425    -0.01500
C523        C  0.26669714  0.13002918  0.75901056    -0.11600
C524        C  0.24678722  0.12988807  0.73341265    -0.11600
C525        C  0.23771600  0.10143694  0.71935134     0.11300
C526        C  0.21705002  0.10092829  0.69391977    -0.09700
C527        C  0.20986981  0.07240140  0.67970374    -0.03600
C528        C  0.21590087  0.04392148  0.69432817    -0.09700
H529        H  0.27153275  0.99276838  0.76971715     0.08500
H530        H  0.23740340  0.99272595  0.72449863     0.08500
H531        H  0.27344421  0.15243429  0.76908230     0.08700
H532        H  0.23868738  0.15216565  0.72441328     0.08700
H533        H  0.32078789  0.07282969  0.83084745     0.05200
H534        H  0.19281089  0.07252366  0.66103069     0.05200
C535        C  0.95646725  0.39533355  0.79489707    -0.09700
C536        C  0.98523361  0.40947956  0.80204788    -0.03600
C537        C  0.01375192  0.39703695  0.79173541    -0.09700
C538        C  0.01368362  0.37375042  0.76835901     0.11300
C539        C  0.98424994  0.36184012  0.75766507    -0.01500
C540        C  0.95550698  0.37168396  0.77190764     0.11100
C541        C  0.92688750  0.35725143  0.76332702    -0.11500
C542        C  0.92630295  0.33403401  0.74048474    -0.11500
C543        C  0.95429107  0.32485147  0.72541651     0.11100
C544        C  0.98363923  0.33844348  0.73434331    -0.01500
C545        C  0.04194183  0.36148181  0.75618001    -0.11600
C546        C  0.04133083  0.33855906  0.73290342    -0.11600
C547        C  0.01243990  0.32714256  0.72136596     0.11300
C548        C  0.01118606  0.30410831  0.69766381    -0.09700
C549        C  0.98194613  0.29401705  0.68683891    -0.03600
C550        C  0.95399918  0.30198367  0.70185423    -0.09700
H551        H  0.90477327  0.36410985  0.77408657     0.08500
H552        H  0.90373631  0.32364367  0.73427114     0.08500
H553        H  0.06462778  0.36995980  0.76434712     0.08700
H554        H  0.06355433  0.32998650  0.72373074     0.08700
H555        H  0.98570640  0.42666250  0.82070036     0.05200
H556        H  0.98113936  0.27546453  0.66949815     0.05200
C557        C  0.22237127  0.72626420  0.99607821    -0.09700
C558        C  0.21081345  0.71532763  0.02444136    -0.03600
C559        C  0.22082051  0.72789454  0.05244442    -0.09700
C560        C  0.24618322  0.74986911  0.05264632     0.11300
C561        C  0.25973341  0.76013106  0.02401739    -0.01500
C562        C  0.24756693  0.74857719  0.99552689     0.11100
C563        C  0.25979109  0.76070726  0.96750164    -0.11500
C564        C  0.28268055  0.78474819  0.96735755    -0.11500
C565        C  0.29457267  0.79686838  0.99522042     0.11100
C566        C  0.28343390  0.78408288  0.02384022    -0.01500
C567        C  0.25724227  0.76285864  0.08047988    -0.11600
C568        C  0.28053313  0.78640679  0.08028467    -0.11600
C569        C  0.29359428  0.79750589  0.05226815     0.11300
C570        C  0.31573459  0.82265136  0.05170977    -0.09700
C571        C  0.32883473  0.83243298  0.02360757    -0.03600
C572        C  0.31652544  0.82232071  0.99550240    -0.09700
H573        H  0.25112196  0.75208399  0.94552813     0.08500
H574        H  0.29103007  0.79395656  0.94531091     0.08500
H575        H  0.24750436  0.75515397  0.10254928     0.08700
H576        H  0.28814451  0.79615222  0.10219414     0.08700
H577        H  0.19017329  0.69982474  0.02459634     0.05200
H578        H  0.34463255  0.85281909  0.02360916     0.05200
C579        C  0.73181879  0.40589030  0.05080277    -0.09700
C580        C  0.74114858  0.41797515  0.02211965    -0.03600
C581        C  0.73284897  0.40305141  0.99468854    -0.09700
C582        C  0.70927656  0.37923748  0.99524118     0.11300
C583        C  0.69625127  0.36923887  0.02416752    -0.01500
C584        C  0.70816985  0.38201393  0.05220634     0.11100
C585        C  0.69704401  0.36988130  0.08064050    -0.11500
C586        C  0.67465391  0.34537919  0.08161229    -0.11500
C587        C  0.66265634  0.33233628  0.05417792     0.11100
C588        C  0.67349706  0.34444025  0.02513739    -0.01500
C589        C  0.69933417  0.36451971  0.96788140    -0.11600
C590        C  0.67656629  0.34049338  0.96876540    -0.11600
C591        C  0.66354301  0.33007010  0.99710180     0.11300
C592        C  0.64167763  0.30472473  0.99837498    -0.09700
C593        C  0.62935327  0.29497755  0.02687607    -0.03600
C594        C  0.64083570  0.30675731  0.05472810    -0.09700
H595        H  0.70577581  0.37928164  0.10228411     0.08500
H596        H  0.66676200  0.33659575  0.10397547     0.08500
H597        H  0.70902833  0.37174480  0.94563513     0.08700
H598        H  0.66936690  0.32985725  0.94712296     0.08700
H599        H  0.76028235  0.43529195  0.02133145     0.05200
H600        H  0.61380135  0.27441958  0.02751955     0.05200
C601        C  0.95279790  0.73179842  0.78667684    -0.09700
C602        C  0.98127135  0.71787260  0.79447244    -0.03600
C603        C  0.01011450  0.73185019  0.78648371    -0.09700
C604        C  0.01087158  0.75644838  0.76430755     0.11300
C605        C  0.98191099  0.76744533  0.75203557    -0.01500
C606        C  0.95263968  0.75557289  0.76381976     0.11100
C607        C  0.92420428  0.76857887  0.75354043    -0.11500
C608        C  0.92438954  0.79284956  0.73169436    -0.11500
C609        C  0.95302661  0.80492394  0.71973098     0.11100
C610        C  0.98212092  0.79241731  0.73026917    -0.01500
C611        C  0.03941715  0.77114677  0.75515771    -0.11600
C612        C  0.03962143  0.79600531  0.73385890    -0.11600
C613        C  0.01130273  0.80665117  0.72096623     0.11300
C614        C  0.01090146  0.83167849  0.69940063    -0.09700
C615        C  0.98247125  0.84059121  0.68640625    -0.03600
C616        C  0.95368318  0.82980934  0.69798930    -0.09700
H617        H  0.90167600  0.75985981  0.76233937     0.08500
H618        H  0.90200864  0.80215627  0.72414576     0.08500
H619        H  0.06170950  0.76337203  0.76444608     0.08700
H620        H  0.06206345  0.80671689  0.72725828     0.08700
H621        H  0.98102896  0.70015156  0.81266009     0.05200
H622        H  0.98251024  0.86052550  0.67056296     0.05200
C623        C  0.63796973  0.09649424  0.78427378    -0.09700
C624        C  0.62402533  0.06786623  0.79277255    -0.03600
C625        C  0.63786541  0.03940296  0.78474545    -0.09700
C626        C  0.66176952  0.03898921  0.76161002     0.11300
C627        C  0.67296406  0.06795538  0.74885209    -0.01500
C628        C  0.66174936  0.09694754  0.76094450     0.11100
C629        C  0.67523425  0.12535065  0.75023271    -0.11500
C630        C  0.69904219  0.12540328  0.72752334    -0.11500
C631        C  0.71046109  0.09702391  0.71524304     0.11100
C632        C  0.69750406  0.06797254  0.72619375    -0.01500
C633        C  0.67550290  0.01067347  0.75186529    -0.11600
C634        C  0.69972451  0.01067572  0.72958697    -0.11600
C635        C  0.71085721  0.03899385  0.71639544     0.11300
C636        C  0.73582664  0.03939509  0.69437427    -0.09700
C637        C  0.74552112  0.06787488  0.68127202    -0.03600
C638        C  0.73517860  0.09662332  0.69288186    -0.09700
H639        H  0.66716501  0.14768165  0.75925718     0.08500
H640        H  0.70862215  0.14781267  0.71967191     0.08500
H641        H  0.66740490  0.98837352  0.76141010     0.08700
H642        H  0.70963052  0.98836348  0.72254060     0.08700
H643        H  0.60658541  0.06778203  0.81145379     0.05200
H644        H  0.76553882  0.06780773  0.66526734     0.05200
C645        C  0.73772530  0.73525411  0.04927752    -0.09700
C646        C  0.74794503  0.72351593  0.02086393    -0.03600
C647        C  0.73930595  0.73742209  0.99305538    -0.09700
C648        C  0.71529442  0.76040549  0.99321127     0.11300
C649        C  0.70180584  0.77001516  0.02199430    -0.01500
C650        C  0.71372697  0.75804100  0.05024726     0.11100
C651        C  0.70235233  0.76995813  0.07854892    -0.11500
C652        C  0.67935642  0.79327291  0.07920348    -0.11500
C653        C  0.66692185  0.80510482  0.05158326     0.11100
C654        C  0.67827600  0.79351467  0.02266465    -0.01500
C655        C  0.70507244  0.77455882  0.96572080    -0.11600
C656        C  0.68160907  0.79751693  0.96634769    -0.11600
C657        C  0.66791723  0.80721866  0.99451625     0.11300
C658        C  0.64466569  0.83093458  0.99567777    -0.09700
C659        C  0.63145549  0.83926176  0.02408093    -0.03600
C660        C  0.64392332  0.82892292  0.05184566    -0.09700
H661        H  0.71124618  0.76122993  0.10033128     0.08500
H662        H  0.67111173  0.80186708  0.10144236     0.08500
H663        H  0.71508157  0.76772236  0.94357180     0.08700
H664        H  0.67419089  0.80772119  0.94464641     0.08700
H665        H  0.76741942  0.70701584  0.02061086     0.05200
H666        H  0.61465735  0.85845213  0.02479750     0.05200
C667        C  0.04554234  0.21458758  0.37665069    -0.04200
C668        C  0.04355063  0.22147722  0.34467304    -0.01300
C669        C  0.03362090  0.25140767  0.33475267     0.03700
C670        C  0.02376281  0.27401086  0.35666518    -0.04200
C671        C  0.02919013  0.26836691  0.38846124    -0.01300
C672        C  0.03948787  0.23859469  0.39848130     0.03700
C673        C  0.04844409  0.19684038  0.32194929     0.38300
C674        C  0.02081242  0.29221086  0.41103434     0.38300
C675        C  0.04201625  0.23208201  0.43135801     0.36800
C676        C  0.03059088  0.25787539  0.30192425     0.36800
N677        N  0.04359955  0.22654210  0.45754452    -0.38100
N678        N  0.02841497  0.26316736  0.27573971    -0.38100
N679        N  0.01404565  0.31113129  0.42912225    -0.37500
N680        N  0.05171347  0.17726431  0.30361425    -0.37500
C681        C  0.13055451  0.13564608  0.38269277    -0.04200
C682        C  0.13761029  0.12627576  0.35205744    -0.01300
C683        C  0.16890229  0.11906604  0.34334036     0.03700
C684        C  0.19300213  0.11847329  0.36582396    -0.04200
C685        C  0.18655606  0.13079437  0.39559853    -0.01300
C686        C  0.15547435  0.13964026  0.40393374     0.03700
C687        C  0.11238506  0.12237902  0.32981520     0.38300
C688        C  0.21184248  0.13293793  0.41793019     0.38300
C689        C  0.14903764  0.15257186  0.43437874     0.36800
C690        C  0.17596513  0.11116577  0.31135820     0.36800
N691        N  0.14382855  0.16309541  0.45859074    -0.38100
N692        N  0.18172722  0.10565459  0.28567828    -0.38100
N693        N  0.23216031  0.13471796  0.43562323    -0.37500
N694        N  0.09239747  0.11879886  0.31201219    -0.37500
C695        C  0.19226200  0.01349655  0.36990899    -0.04200
C696        C  0.16650950  0.01381416  0.34926776    -0.01300
C697        C  0.13621017  0.00429053  0.35940708     0.03700
C698        C  0.13149283  0.99310338  0.38986985    -0.04200
C699        C  0.15769725  0.98972285  0.40957726    -0.01300
C700        C  0.18802244  0.00018292  0.39968478     0.03700
C701        C  0.17059426  0.02632962  0.31818145     0.38300
C702        C  0.15335172  0.97594608  0.44007495     0.38300
C703        C  0.21466245  0.99865507  0.42047509     0.36800
C704        C  0.10951187  0.00752101  0.33883185     0.36800
N705        N  0.23596045  0.99733968  0.43703460    -0.38100
N706        N  0.08836021  0.01039151  0.32232352    -0.38100
N707        N  0.14995059  0.96483338  0.46438235    -0.37500
N708        N  0.17386934  0.03599516  0.29328537    -0.37500
C709        C  0.04662758  0.91314937  0.38204245    -0.04200
C710        C  0.04816955  0.88615636  0.40104161    -0.01300
C711        C  0.03890552  0.85647365  0.38933768     0.03700
C712        C  0.02708942  0.85385594  0.35902072    -0.04200
C713        C  0.02927534  0.88010426  0.33896684    -0.01300
C714        C  0.03856775  0.90978961  0.35054813     0.03700
C715        C  0.05822882  0.88918605  0.43291643     0.38300
C716        C  0.01909298  0.87701120  0.30709514     0.38300
C717        C  0.03796385  0.93716839  0.33049714     0.36800
C718        C  0.03987439  0.82872198  0.40880492     0.36800
N719        N  0.03712966  0.95889001  0.31435312    -0.38100
N720        N  0.04101892  0.80647001  0.42421262    -0.38100
N721        N  0.01101710  0.87428975  0.28169545    -0.37500
N722        N  0.06611761  0.89181779  0.45838093    -0.37500
C723        C  0.80878835  0.98946567  0.38912586    -0.04200
C724        C  0.80163009  0.99495282  0.35765063    -0.01300
C725        C  0.77045888  0.00218237  0.34869483     0.03700
C726        C  0.74623347  0.00567455  0.37129397    -0.04200
C727        C  0.75284697  0.99704886  0.40234447    -0.01300
C728        C  0.78387588  0.98889225  0.41110496     0.03700
C729        C  0.82667206  0.99500412  0.33446832     0.38300
C730        C  0.72840307  0.99983880  0.42595094     0.38300
C731        C  0.79040113  0.98032585  0.44291125     0.36800
C732        C  0.76406189  0.00842976  0.31632187     0.36800
N733        N  0.79596387  0.97334253  0.46817361    -0.38100
N734        N  0.75899343  0.01305875  0.29043045    -0.38100
N735        N  0.70920742  0.00245088  0.44504195    -0.37500
N736        N  0.84627897  0.99543437  0.31559074    -0.37500
C737        C  0.89393703  0.91062331  0.38479259    -0.04200
C738        C  0.89406490  0.88335942  0.40353589    -0.01300
C739        C  0.90576990  0.85474925  0.39152178     0.03700
C740        C  0.91684409  0.85304392  0.36054230    -0.04200
C741        C  0.91337858  0.87945443  0.34099595    -0.01300
C742        C  0.90287064  0.90831346  0.35327545     0.03700
C743        C  0.88359396  0.88505819  0.43556434     0.38300
C744        C  0.92409087  0.87791428  0.30899445     0.38300
C745        C  0.90414483  0.93638655  0.33415445     0.36800
C746        C  0.90950580  0.82784890  0.41180836     0.36800
N747        N  0.90589419  0.95881750  0.31899462    -0.38100
N748        N  0.91281965  0.80648238  0.42805374    -0.38100
N749        N  0.93264630  0.87669534  0.28348329    -0.37500
N750        N  0.87537664  0.88621430  0.46118540    -0.37500
C751        C  0.91190100  0.26941753  0.35319653    -0.04200
C752        C  0.90785887  0.24331668  0.33336498    -0.01300
C753        C  0.89780230  0.21412377  0.34566753     0.03700
C754        C  0.89052800  0.21142258  0.37757530    -0.04200
C755        C  0.88994558  0.23865923  0.39623021    -0.01300
C756        C  0.90100484  0.26757956  0.38413860     0.03700
C757        C  0.91752892  0.24572759  0.30107659     0.38300
C758        C  0.87876683  0.23672388  0.42804127     0.38300
C759        C  0.90465914  0.29464258  0.40430062     0.36800
C760        C  0.89699542  0.18654812  0.32588996     0.36800
N761        N  0.90796095  0.31621139  0.42035516    -0.38100
N762        N  0.89667859  0.16473052  0.30985913    -0.38100
N763        N  0.86963115  0.23522985  0.45336099    -0.37500
N764        N  0.92527501  0.24781015  0.27536065    -0.37500
C765        C  0.80957001  0.12843426  0.38951264    -0.04200
C766        C  0.78362968  0.13179562  0.41001193    -0.01300
C767        C  0.75298043  0.12284976  0.40047329     0.03700
C768        C  0.74817716  0.11070924  0.37035878    -0.04200
C769        C  0.77389934  0.10993265  0.34917119    -0.01300
C770        C  0.80454573  0.11774492  0.35903474     0.03700
C771        C  0.78863982  0.14351019  0.44114550     0.38300
C772        C  0.76939329  0.09835424  0.31786141     0.38300
C773        C  0.83128253  0.11280117  0.33832658     0.36800
C774        C  0.72664944  0.12392281  0.42221564     0.36800
N775        N  0.85245925  0.10828345  0.32181069    -0.38100
N776        N  0.70566533  0.12470263  0.43960634    -0.38100
N777        N  0.76577195  0.08931949  0.29285060    -0.37500
N778        N  0.79261781  0.15272805  0.46604162    -0.37500
C779        C  0.05645889  0.22347558  0.66566927    -0.04200
C780        C  0.05532741  0.24972550  0.64576531    -0.01300
C781        C  0.04543503  0.27911628  0.65737013     0.03700
C782        C  0.03725281  0.28245190  0.68909349    -0.04200
C783        C  0.04285015  0.25721728  0.70959689    -0.01300
C784        C  0.05214662  0.22778570  0.69790107     0.03700
C785        C  0.06393601  0.24626842  0.61334556     0.38300
C786        C  0.03491980  0.26018478  0.74226360     0.38300
C787        C  0.05540731  0.20147900  0.71904167     0.36800
C788        C  0.04012123  0.30490565  0.63612285     0.36800
N789        N  0.05799340  0.18076987  0.73620580    -0.38100
N790        N  0.03559358  0.32523554  0.61893144    -0.38100
N791        N  0.02840048  0.26234741  0.76826632    -0.37500
N792        N  0.07109626  0.24330484  0.58757623    -0.37500
C793        C  0.13231299  0.13776655  0.66399121    -0.04200
C794        C  0.15981716  0.14357378  0.64601327    -0.01300
C795        C  0.18989060  0.13759838  0.65843319     0.03700
C796        C  0.19250138  0.12495523  0.68851238    -0.04200
C797        C  0.16519739  0.12270053  0.70760186    -0.01300
C798        C  0.13515324  0.12801110  0.69506669     0.03700
C799        C  0.15695414  0.15475836  0.61444315     0.38300
C800        C  0.16781389  0.11221025  0.73947574     0.38300
C801        C  0.10703777  0.12173654  0.71369313     0.36800
C802        C  0.21821831  0.14294166  0.63993993     0.36800
N803        N  0.08480453  0.11607872  0.72861297    -0.38100
N804        N  0.24081853  0.14761260  0.62523026    -0.38100
N805        N  0.16990963  0.10409808  0.76495913    -0.37500
N806        N  0.15434070  0.16344890  0.58919972    -0.37500
C807        C  0.90373813  0.22443182  0.66861507    -0.04200
C808        C  0.89918039  0.25381695  0.65411394    -0.01300
C809        C  0.91187080  0.28138465  0.66752730     0.03700
C810        C  0.92760873  0.27970941  0.69608143    -0.04200
C811        C  0.92804020  0.25096482  0.71249159    -0.01300
C812        C  0.91755154  0.22314056  0.69814203     0.03700
C813        C  0.88250658  0.25556044  0.62501400     0.38300
C814        C  0.94163670  0.24970358  0.74318202     0.38300
C815        C  0.92242606  0.19293568  0.71300111     0.36800
C816        C  0.91087624  0.31116245  0.65115045     0.36800
N817        N  0.92667854  0.16872119  0.72443436    -0.38100
N818        N  0.91029747  0.33500640  0.63819482    -0.38100
N819        N  0.95207859  0.24859757  0.76782464    -0.37500
N820        N  0.86904951  0.25721129  0.60187345    -0.37500
C821        C  0.75675969  0.12366779  0.68545246    -0.04200
C822        C  0.78011824  0.13194901  0.70728176    -0.01300
C823        C  0.80977764  0.14366675  0.69712545     0.03700
C824        C  0.81605195  0.14763744  0.66511279    -0.04200
C825        C  0.79131186  0.14356051  0.64379621    -0.01300
C826        C  0.76165095  0.13181154  0.65399274     0.03700
C827        C  0.77468849  0.12604886  0.74001602     0.38300
C828        C  0.79667676  0.15072434  0.61130815     0.38300
C829        C  0.73689078  0.12548600  0.63180274     0.36800
C830        C  0.83443994  0.14977551  0.71956489     0.36800
N831        N  0.71714301  0.12037954  0.61407861    -0.38100
N832        N  0.85399416  0.15470909  0.73754025    -0.38100
N833        N  0.80108731  0.15651409  0.58541565    -0.37500
N834        N  0.77046946  0.12172088  0.76620833    -0.37500
C835        C  0.90384844  0.91092942  0.67269082    -0.04200
C836        C  0.91161879  0.90598075  0.70405630    -0.01300
C837        C  0.92306984  0.87657776  0.71380580     0.03700
C838        C  0.92743806  0.85200328  0.69214169    -0.04200
C839        C  0.91749744  0.85628265  0.66126581    -0.01300
C840        C  0.90563383  0.88559303  0.65160364     0.03700
C841        C  0.91030208  0.93189665  0.72588046     0.38300
C842        C  0.92310355  0.83163991  0.63867439     0.38300
C843        C  0.89646202  0.89001743  0.61964081     0.36800
C844        C  0.93419631  0.87293462  0.74530958     0.36800
N845        N  0.88924386  0.89343600  0.59408578    -0.38100
N846        N  0.94329995  0.87008457  0.77033105    -0.38100
N847        N  0.92808807  0.81211528  0.62065004    -0.37500
N848        N  0.90963035  0.95245167  0.74343684    -0.37500
C849        C  0.81973274  0.99142131  0.67284174    -0.04200
C850        C  0.81539785  0.00381492  0.70285442    -0.01300
C851        C  0.78581010  0.01582845  0.71184977     0.03700
C852        C  0.75992993  0.01429206  0.69138577    -0.04200
C853        C  0.76330877  0.99819011  0.66299480    -0.01300
C854        C  0.79340492  0.98769360  0.65324288     0.03700
C855        C  0.84185239  0.00599789  0.72388031     0.38300
C856        C  0.73597536  0.99353038  0.64349625     0.38300
C857        C  0.79764614  0.97438934  0.62257600     0.36800
C858        C  0.78294650  0.03320790  0.74067384     0.36800
N859        N  0.80126668  0.96407999  0.59800301    -0.38100
N860        N  0.78062716  0.04748570  0.76338100    -0.38100
N861        N  0.71407456  0.98923263  0.62813600    -0.37500
N862        N  0.86275103  0.00782558  0.74089706    -0.37500
C863        C  0.19097241  0.01951621  0.68869012    -0.04200
C864        C  0.18562443  0.00970017  0.65786293    -0.01300
C865        C  0.15488246  0.00118803  0.64825444     0.03700
C866        C  0.12940555  0.00169709  0.66961960    -0.04200
C867        C  0.13539370  0.00821804  0.70112400    -0.01300
C868        C  0.16605204  0.01672724  0.71070075     0.03700
C869        C  0.21144496  0.01111058  0.63552028     0.38300
C870        C  0.10965324  0.00760993  0.72362552     0.38300
C871        C  0.17118206  0.02488744  0.74292174     0.36800
C872        C  0.14939841  0.99241874  0.61628825     0.36800
N873        N  0.17507352  0.03105535  0.76872277    -0.38100
N874        N  0.14504194  0.98550333  0.59074902    -0.38100
N875        N  0.08933064  0.00725632  0.74176760    -0.37500
N876        N  0.23209883  0.01247435  0.61776288    -0.37500
C877        C  0.04918530  0.91770930  0.67393160    -0.04200
C878        C  0.05245542  0.89206392  0.65344339    -0.01300
C879        C  0.04664285  0.86110134  0.66400635     0.03700
C880        C  0.03624246  0.85571606  0.69476569    -0.04200
C881        C  0.03657177  0.88097935  0.71607633    -0.01300
C882        C  0.04254691  0.91195512  0.70560457     0.03700
C883        C  0.06037076  0.89769768  0.62113774     0.38300
C884        C  0.02672777  0.87558700  0.74798585     0.38300
C885        C  0.03953996  0.93803997  0.72707047     0.36800
C886        C  0.04692198  0.83506377  0.64231207     0.36800
N887        N  0.03666780  0.95852172  0.74449476    -0.38100
N888        N  0.04675195  0.81423317  0.62505535    -0.38100
N889        N  0.01877295  0.87131163  0.77338651    -0.37500
N890        N  0.06639792  0.90236177  0.59532436    -0.37500
C891        C  0.30729536  0.11672885  0.23702189    -0.04200
C892        C  0.33827397  0.12921706  0.23420110    -0.01300
C893        C  0.34903751  0.14136447  0.20557853     0.03700
C894        C  0.32930830  0.13962885  0.17950441    -0.04200
C895        C  0.29770975  0.12922373  0.18278896    -0.01300
C896        C  0.28639198  0.11877764  0.21176959     0.03700
C897        C  0.35994567  0.12656387  0.25984980     0.38300
C898        C  0.27759041  0.12712621  0.15580666     0.38300
C899        C  0.25426104  0.10663837  0.21467793     0.36800
C900        C  0.38066916  0.15467608  0.20261179     0.36800
N901        N  0.22863638  0.09695485  0.21679173    -0.38100
N902        N  0.40582226  0.16547958  0.20015160    -0.38100
N903        N  0.26179147  0.12502103  0.13416273    -0.37500
N904        N  0.37739180  0.12412895  0.28016580    -0.37500
C905        C  0.33272191  0.22594748  0.10417164    -0.04200
C906        C  0.30066737  0.23283354  0.09854074    -0.01300
C907        C  0.29166336  0.26392517  0.09174300     0.03700
C908        C  0.31492814  0.28790475  0.08853137    -0.04200
C909        C  0.34612052  0.28174060  0.09816941    -0.01300
C910        C  0.35483295  0.25092347  0.10651125     0.03700
C911        C  0.27708461  0.20773770  0.09848183     0.38300
C912        C  0.36994258  0.30646924  0.09604249     0.38300
C913        C  0.38644275  0.24483235  0.11755244     0.36800
C914        C  0.25880615  0.27062404  0.08542795     0.36800
N915        N  0.41146757  0.23980983  0.12682165    -0.38100
N916        N  0.23247330  0.27580228  0.08078070    -0.38100
N917        N  0.38897723  0.32616819  0.09394123    -0.37500
N918        N  0.25814359  0.18785792  0.09833953    -0.37500
C919        C  0.30524513  0.00647664  0.23877056    -0.04200
C920        C  0.28418921  0.00333579  0.21376799    -0.01300
C921        C  0.29569467  0.99505115  0.18413026     0.03700
C922        C  0.32797413  0.98792273  0.17974394    -0.04200
C923        C  0.34769618  0.98574351  0.20586045    -0.01300
C924        C  0.33642122  0.99538448  0.23526019     0.03700
C925        C  0.25123863  0.01154097  0.21802400     0.38300
C926        C  0.37953851  0.97388511  0.20242354     0.38300
C927        C  0.35743957  0.99655414  0.26154387     0.36800
C928        C  0.27461891  0.99538920  0.15785193     0.36800
N929        N  0.37400004  0.99763669  0.28270104    -0.38100
N930        N  0.25777615  0.99589361  0.13691177    -0.38100
N931        N  0.40483398  0.96406308  0.19975319    -0.37500
N932        N  0.22487923  0.01781726  0.22146112    -0.37500
C933        C  0.31888409  0.84658024  0.07665660    -0.04200
C934        C  0.34917667  0.85295457  0.08875973    -0.01300
C935        C  0.35710173  0.88356075  0.09901543     0.03700
C936        C  0.33456927  0.90775297  0.09755576    -0.04200
C937        C  0.30336432  0.90057306  0.08851377    -0.01300
C938        C  0.29543376  0.87000219  0.07845134     0.03700
C939        C  0.37264283  0.82835909  0.08877187     0.38300
C940        C  0.27980651  0.92512596  0.08786291     0.38300
C941        C  0.26374803  0.86348769  0.06739715     0.36800
C942        C  0.38862752  0.89043193  0.11026109     0.36800
N943        N  0.23835663  0.85852235  0.05879255    -0.38100
N944        N  0.41377099  0.89603761  0.11922136    -0.38100
N945        N  0.26094285  0.94461531  0.08709795    -0.37500
N946        N  0.39131138  0.80865484  0.08889444    -0.37500
C947        C  0.32307319  0.99735607  0.87809223    -0.04200
C948        C  0.34348422  0.99745331  0.85204473    -0.01300
C949        C  0.33230537  0.00715237  0.82298490     0.03700
C950        C  0.30092447  0.01755677  0.82001082    -0.04200
C951        C  0.27970778  0.01442527  0.84537370    -0.01300
C952        C  0.29090221  0.00493161  0.87453619     0.03700
C953        C  0.37645693  0.98927416  0.85559550     0.38300
C954        C  0.24723538  0.02461390  0.84223937     0.38300
C955        C  0.26997547  0.00553341  0.90135917     0.36800
C956        C  0.35390862  0.00999126  0.79681002     0.36800
N957        N  0.25325005  0.00655970  0.92270963    -0.38100
N958        N  0.37107662  0.01252195  0.77589379    -0.38100
N959        N  0.22139318  0.03285039  0.83971649    -0.37500
N960        N  0.40280017  0.98302451  0.85869032    -0.37500
C961        C  0.33414906  0.90894285  0.95130812    -0.04200
C962        C  0.30249455  0.89951846  0.95744470    -0.01300
C963        C  0.29555539  0.86858743  0.96748327     0.03700
C964        C  0.32002316  0.84638162  0.97045181    -0.04200
C965        C  0.35083061  0.85465876  0.96008998    -0.01300
C966        C  0.35812315  0.88605143  0.95150463     0.03700
C967        C  0.27714022  0.92216680  0.95553201     0.38300
C968        C  0.37556177  0.83134207  0.96097663     0.38300
C969        C  0.39049571  0.89501010  0.94398701     0.36800
C970        C  0.26383182  0.86093157  0.97842716     0.36800
N971        N  0.41638331  0.90225916  0.93832838    -0.38100
N972        N  0.23855240  0.85517420  0.98740336    -0.38100
N973        N  0.39531713  0.81273205  0.96156157    -0.37500
N974        N  0.25673132  0.93997995  0.95386637    -0.37500
C975        C  0.33279402  0.22676676  0.95937193    -0.04200
C976        C  0.35493938  0.25183007  0.95784399    -0.01300
C977        C  0.34698730  0.28166406  0.96978215     0.03700
C978        C  0.31638647  0.28687621  0.98210094    -0.04200
C979        C  0.29326855  0.26261369  0.98045251    -0.01300
C980        C  0.30162056  0.23252500  0.96971186     0.03700
C981        C  0.38617763  0.24652526  0.94481928     0.38300
C982        C  0.26190628  0.26741181  0.99357583     0.38300
C983        C  0.27872062  0.20692079  0.97187268     0.36800
C984        C  0.37111417  0.30603901  0.97223607     0.36800
N985        N  0.26014643  0.18684486  0.97436970    -0.38100
N986        N  0.39058371  0.32524990  0.97450579    -0.38100
N987        N  0.23703262  0.27118507  0.00427023    -0.37500
N988        N  0.41098628  0.24200413  0.93428607    -0.37500
C989        C  0.30429109  0.12847215  0.81814435    -0.04200
C990        C  0.28264782  0.13424061  0.84245464    -0.01300
C991        C  0.29379631  0.14294274  0.87191755     0.03700
C992        C  0.32666434  0.14692978  0.87686683    -0.04200
C993        C  0.34768033  0.14573632  0.85126602    -0.01300
C994        C  0.33638308  0.13685838  0.82187689     0.03700
C995        C  0.24918096  0.12812509  0.83779211     0.38300
C996        C  0.38092304  0.15320972  0.85525358     0.38300
C997        C  0.35802563  0.13340572  0.79588686     0.36800
C998        C  0.27144793  0.14606123  0.89737581     0.36800
N999        N  0.37504305  0.13059770  0.77493872    -0.38100
N1000       N  0.25320605  0.14844445  0.91735622    -0.38100
N1001       N  0.40743311  0.15926039  0.85852051    -0.37500
N1002       N  0.22251145  0.12335451  0.83390057    -0.37500
C1003       C  0.63536153  0.28507847  0.08152829    -0.04200
C1004       C  0.65799658  0.26143292  0.08631509    -0.01300
C1005       C  0.64842812  0.23137107  0.09702891     0.03700
C1006       C  0.61624360  0.22498985  0.10395152    -0.04200
C1007       C  0.59440687  0.24990777  0.10319295    -0.01300
C1008       C  0.60408517  0.27997878  0.09234839     0.03700
C1009       C  0.69075121  0.26723894  0.07750751     0.38300
C1010       C  0.56185308  0.24438089  0.11277679     0.38300
C1011       C  0.58164605  0.30543875  0.09082117     0.36800
C1012       C  0.67147102  0.20645949  0.09883877     0.36800
N1013       N  0.56380509  0.32586979  0.08997376    -0.38100
N1014       N  0.69011196  0.18678637  0.09998068    -0.38100
N1015       N  0.53586288  0.23996190  0.12041269    -0.37500
N1016       N  0.71686856  0.27204533  0.07057167    -0.37500
C1017       C  0.63495448  0.11569022  0.24120435    -0.04200
C1018       C  0.60430852  0.12816688  0.23788869    -0.01300
C1019       C  0.59473703  0.14077301  0.20916069     0.03700
C1020       C  0.61545386  0.14010556  0.18329607    -0.04200
C1021       C  0.64679250  0.12986238  0.18725285    -0.01300
C1022       C  0.65673226  0.11850530  0.21626852     0.03700
C1023       C  0.58181992  0.12535941  0.26334185     0.38300
C1024       C  0.66814588  0.12878065  0.16079698     0.38300
C1025       C  0.68856339  0.10667445  0.21962751     0.36800
C1026       C  0.56323369  0.15338636  0.20592487     0.36800
N1027       N  0.71396117  0.09728498  0.22237612    -0.38100
N1028       N  0.53810453  0.16353914  0.20344607    -0.38100
N1029       N  0.68501439  0.12746870  0.13958516    -0.37500
N1030       N  0.56387721  0.12282992  0.28363489    -0.37500
C1031       C  0.63652266  0.28186130  0.97281052    -0.04200
C1032       C  0.66008019  0.25915490  0.96733227    -0.01300
C1033       C  0.65158019  0.22911255  0.95621499     0.03700
C1034       C  0.61960065  0.22188931  0.95004561    -0.04200
C1035       C  0.59679682  0.24583240  0.95167608    -0.01300
C1036       C  0.60532649  0.27587428  0.96287635     0.03700
C1037       C  0.69263640  0.26573629  0.97575737     0.38300
C1038       C  0.56444204  0.23918693  0.94266065     0.38300
C1039       C  0.58169701  0.30011456  0.96622804     0.36800
C1040       C  0.67546790  0.20505586  0.95326886     0.36800
N1041       N  0.56290881  0.31955088  0.96884558    -0.38100
N1042       N  0.69481218  0.18611269  0.95124887    -0.38100
N1043       N  0.53870201  0.23362268  0.93541151    -0.37500
N1044       N  0.71860248  0.27111588  0.98235071    -0.37500
C1045       C  0.61668448  0.13997601  0.86905724    -0.04200
C1046       C  0.59417456  0.14089046  0.84516112    -0.01300
C1047       C  0.60289003  0.13231620  0.81464844     0.03700
C1048       C  0.63376120  0.12155070  0.80813730    -0.04200
C1049       C  0.65700538  0.12406240  0.83137311    -0.01300
C1050       C  0.64846827  0.13314517  0.86167680     0.03700
C1051       C  0.56194223  0.14998352  0.85217934     0.38300
C1052       C  0.68932667  0.11486574  0.82486272     0.38300
C1053       C  0.67222754  0.13384862  0.88566716     0.36800
C1054       C  0.57975628  0.13277978  0.79012691     0.36800
N1055       N  0.69136944  0.13424485  0.90461722    -0.38100
N1056       N  0.56134668  0.13343607  0.77049277    -0.38100
N1057       N  0.71521696  0.10779272  0.81983987    -0.37500
N1058       N  0.53623994  0.15714331  0.85801641    -0.37500
C1059       C  0.61898032  0.91401895  0.94978345    -0.04200
C1060       C  0.59695483  0.88888734  0.95154352    -0.01300
C1061       C  0.60652552  0.85906474  0.96204644     0.03700
C1062       C  0.63832114  0.85411100  0.97062909    -0.04200
C1063       C  0.66097523  0.87840100  0.96547204    -0.01300
C1064       C  0.65126086  0.90833494  0.95537140     0.03700
C1065       C  0.56417734  0.89410472  0.94360029     0.38300
C1066       C  0.69376348  0.87374559  0.97381550     0.38300
C1067       C  0.67416376  0.93394486  0.95291895     0.36800
C1068       C  0.58296067  0.83455648  0.96764697     0.36800
N1069       N  0.69241414  0.95439631  0.95114329    -0.38100
N1070       N  0.56401255  0.81527272  0.97258573    -0.38100
N1071       N  0.71991298  0.87007143  0.98045538    -0.37500
N1072       N  0.53806927  0.89845474  0.93723699    -0.37500
C1073       C  0.61497666  0.99708767  0.86991181    -0.04200
C1074       C  0.59431541  0.99238458  0.84478827    -0.01300
C1075       C  0.60389745  0.00127928  0.81453524     0.03700
C1076       C  0.63404859  0.01501761  0.80933572    -0.04200
C1077       C  0.65578599  0.01634129  0.83398090    -0.01300
C1078       C  0.64595864  0.00847052  0.86428906     0.03700
C1079       C  0.56290905  0.97937452  0.85029539     0.38300
C1080       C  0.68777043  0.02787421  0.82845335     0.38300
C1081       C  0.66712483  0.01396700  0.89001701     0.36800
C1082       C  0.58251174  0.99745949  0.78876503     0.36800
N1083       N  0.68388780  0.01881995  0.91053161    -0.38100
N1084       N  0.56559209  0.99409469  0.76809626    -0.38100
N1085       N  0.71342326  0.03661076  0.82393335    -0.37500
N1086       N  0.53782205  0.96909703  0.85484980    -0.37500
C1087       C  0.63163958  0.00591277  0.24153046    -0.04200
C1088       C  0.60010275  0.99595763  0.23673655    -0.01300
C1089       C  0.58972723  0.98822479  0.20664603     0.03700
C1090       C  0.61138786  0.98870235  0.18153120    -0.04200
C1091       C  0.64371525  0.99502559  0.18711667    -0.01300
C1092       C  0.65384652  0.00323312  0.21705177     0.03700
C1093       C  0.57801098  0.99609300  0.26261373     0.38300
C1094       C  0.66628671  0.99543428  0.16159080     0.38300
C1095       C  0.68660027  0.01237826  0.22194110     0.36800
C1096       C  0.55658487  0.98127282  0.20131617     0.36800
N1097       N  0.71271942  0.01969761  0.22573698    -0.38100
N1098       N  0.53004725  0.97611812  0.19705914    -0.38100
N1099       N  0.68442613  0.99609710  0.14135844    -0.37500
N1100       N  0.56059446  0.99599109  0.28346255    -0.37500
C1101       C  0.63839985  0.85123436  0.07776142    -0.04200
C1102       C  0.60757117  0.85331684  0.09038164    -0.01300
C1103       C  0.59605261  0.88258674  0.10078195     0.03700
C1104       C  0.61522088  0.90991874  0.09809663    -0.04200
C1105       C  0.64694715  0.90724589  0.08812897    -0.01300
C1106       C  0.65877544  0.87781386  0.07890807     0.03700
C1107       C  0.58702057  0.82577036  0.09011893     0.38300
C1108       C  0.66683611  0.93517330  0.08534476     0.38300
C1109       C  0.69095785  0.87554303  0.06714778     0.36800
C1110       C  0.56417154  0.88483471  0.11318083     0.36800
N1111       N  0.71658083  0.87360014  0.05773205    -0.38100
N1112       N  0.53874125  0.88665404  0.12312668    -0.38100
N1113       N  0.68268166  0.95741040  0.08260712    -0.37500
N1114       N  0.57070956  0.80370749  0.08977210    -0.37500
C1115       C  0.02266608  0.39976369  0.23919071    -0.04200
C1116       C  0.03278906  0.43134788  0.23577279    -0.01300
C1117       C  0.04354845  0.44247743  0.20669457     0.03700
C1118       C  0.04416793  0.42195606  0.18098503    -0.04200
C1119       C  0.03708206  0.38966894  0.18526433    -0.01300
C1120       C  0.02740246  0.37843542  0.21455533     0.03700
C1121       C  0.03015671  0.45263994  0.26186823     0.38300
C1122       C  0.03743007  0.36830798  0.15908476     0.38300
C1123       C  0.01972630  0.34527875  0.21867800     0.36800
C1124       C  0.05319414  0.47514396  0.20305212     0.36800
N1125       N  0.01389709  0.31880165  0.22206680    -0.38100
N1126       N  0.06090437  0.50122595  0.20020470    -0.38100
N1127       N  0.03696792  0.35099793  0.13841537    -0.37500
N1128       N  0.02816237  0.46954242  0.28279008    -0.37500
C1129       C  0.13192614  0.42778102  0.10491233    -0.04200
C1130       C  0.15534058  0.45159942  0.10222099    -0.01300
C1131       C  0.18648915  0.44383078  0.09322386     0.03700
C1132       C  0.19410070  0.41235330  0.08559758    -0.04200
C1133       C  0.17134784  0.38829212  0.09124474    -0.01300
C1134       C  0.14050148  0.39597194  0.10097856     0.03700
C1135       C  0.14701169  0.48422403  0.10750615     0.38300
C1136       C  0.17828133  0.35586319  0.08337819     0.38300
C1137       C  0.11700571  0.37104378  0.10445749     0.36800
C1138       C  0.20993269  0.46861596  0.08855033     0.36800
N1139       N  0.09876086  0.35068568  0.10697178    -0.38100
N1140       N  0.22849736  0.48850109  0.08467931    -0.38100
N1141       N  0.18355020  0.32999040  0.07698025    -0.37500
N1142       N  0.14003140  0.51018687  0.11150216    -0.37500
C1143       C  0.19471087  0.40707420  0.97954402    -0.04200
C1144       C  0.19028549  0.43649069  0.96509333    -0.01300
C1145       C  0.16043167  0.44424074  0.95324999     0.03700
C1146       C  0.13458081  0.42333991  0.95745102    -0.04200
C1147       C  0.13974932  0.39273637  0.96881955    -0.01300
C1148       C  0.16993077  0.38439573  0.97930103     0.03700
C1149       C  0.21578393  0.45957956  0.96459322     0.38300
C1150       C  0.11374617  0.37019475  0.97064757     0.38300
C1151       C  0.17472357  0.35338611  0.99247255     0.36800
C1152       C  0.15624338  0.47353081  0.93658852     0.36800
N1153       N  0.17860845  0.32861698  0.00284408    -0.38100
N1154       N  0.15285804  0.49658749  0.92277787    -0.38100
N1155       N  0.09301043  0.35221655  0.97209851    -0.37500
N1156       N  0.23600112  0.47817823  0.96432151    -0.37500
C1157       C  0.05641199  0.42150074  0.87439862    -0.04200
C1158       C  0.04993555  0.38940959  0.86823028    -0.01300
C1159       C  0.04225142  0.37968187  0.83802433     0.03700
C1160       C  0.03974857  0.40221300  0.81407801    -0.04200
C1161       C  0.05010834  0.43347825  0.81945889    -0.01300
C1162       C  0.05871935  0.44302318  0.84954064     0.03700
C1163       C  0.04935101  0.36660495  0.89327061     0.38300
C1164       C  0.04791686  0.45657812  0.79485228     0.38300
C1165       C  0.06944474  0.47505717  0.85507520     0.36800
C1166       C  0.03274214  0.34720290  0.83252077     0.36800
N1167       N  0.07825529  0.50052353  0.85959870    -0.38100
N1168       N  0.02496628  0.32140706  0.82800780    -0.38100
N1169       N  0.04569292  0.47502122  0.77527675    -0.37500
N1170       N  0.04873338  0.34822247  0.91306439    -0.37500
C1171       C  0.81918968  0.42540306  0.95165808    -0.04200
C1172       C  0.81375876  0.39453959  0.96273505    -0.01300
C1173       C  0.78309530  0.38481765  0.97173296     0.03700
C1174       C  0.75767270  0.40608888  0.97018668    -0.04200
C1175       C  0.76252678  0.43566793  0.95588130    -0.01300
C1176       C  0.79336566  0.44565384  0.94728551     0.03700
C1177       C  0.84019510  0.37361227  0.96730569     0.38300
C1178       C  0.73591688  0.45642957  0.95191459     0.38300
C1179       C  0.79874413  0.47725092  0.93548763     0.36800
C1180       C  0.77837984  0.35409837  0.98591412     0.36800
N1181       N  0.80305485  0.50260154  0.92641388    -0.38100
N1182       N  0.77462790  0.32964709  0.99728807    -0.38100
N1183       N  0.71461388  0.47287881  0.94844582    -0.37500
N1184       N  0.86128209  0.35701879  0.97126291    -0.37500
C1185       C  0.90854206  0.42071909  0.87713961    -0.04200
C1186       C  0.91077010  0.44239741  0.85242391    -0.01300
C1187       C  0.92078170  0.43229744  0.82286135     0.03700
C1188       C  0.93113382  0.40111340  0.81839193    -0.04200
C1189       C  0.92697474  0.37897703  0.84262985    -0.01300
C1190       C  0.91513973  0.38865103  0.87172936     0.03700
C1191       C  0.90340336  0.47526656  0.85765279     0.38300
C1192       C  0.93686700  0.34665796  0.83829033     0.38300
C1193       C  0.91102921  0.36577496  0.89643344     0.36800
C1194       C  0.92161827  0.45422614  0.79713449     0.36800
N1195       N  0.90769418  0.34724828  0.91588773    -0.38100
N1196       N  0.92170065  0.47173483  0.77658884    -0.38100
N1197       N  0.94465451  0.32087095  0.83470820    -0.37500
N1198       N  0.89779459  0.50147690  0.86219258    -0.37500
C1199       C  0.91299286  0.39669147  0.23641723    -0.04200
C1200       C  0.90013942  0.42722362  0.23598995    -0.01300
C1201       C  0.89135139  0.44111971  0.20763322     0.03700
C1202       C  0.89597683  0.42465281  0.17957079    -0.04200
C1203       C  0.90640857  0.39325263  0.18034471    -0.01300
C1204       C  0.91327465  0.37882018  0.20884080     0.03700
C1205       C  0.89837149  0.44500306  0.26457956     0.38300
C1206       C  0.91245862  0.37666094  0.15157190     0.38300
C1207       C  0.92347917  0.34634583  0.20953190     0.36800
C1208       C  0.87918276  0.47287577  0.20713338     0.36800
N1209       N  0.93127712  0.32032886  0.21013253    -0.38100
N1210       N  0.86957341  0.49827383  0.20674521    -0.38100
N1211       N  0.91798519  0.36383600  0.12854290    -0.37500
N1212       N  0.89704720  0.45904011  0.28751098    -0.37500
C1213       C  0.81451829  0.43175457  0.09910252    -0.04200
C1214       C  0.80818259  0.39971242  0.09277669    -0.01300
C1215       C  0.77826407  0.39017700  0.08195611     0.03700
C1216       C  0.75484879  0.41284752  0.07590442    -0.04200
C1217       C  0.76051838  0.44458984  0.08441160    -0.01300
C1218       C  0.79012783  0.45391708  0.09637554     0.03700
C1219       C  0.83311225  0.37671398  0.09563129     0.38300
C1220       C  0.73676052  0.46807268  0.07825651     0.38300
C1221       C  0.79568959  0.48637346  0.10541665     0.36800
C1222       C  0.77261199  0.35724076  0.07475344     0.36800
N1223       N  0.80007230  0.51222691  0.11282748    -0.38100
N1224       N  0.76821156  0.33086638  0.06941519    -0.38100
N1225       N  0.71795995  0.48687261  0.07300919    -0.37500
N1226       N  0.85296435  0.35834325  0.09772411    -0.37500
C1227       C  0.02786130  0.73024616  0.23937018    -0.04200
C1228       C  0.03742505  0.69891019  0.23392645    -0.01300
C1229       C  0.04816043  0.68972032  0.20425228     0.03700
C1230       C  0.04965064  0.71184971  0.17987036    -0.04200
C1231       C  0.04309578  0.74376622  0.18607249    -0.01300
C1232       C  0.03286225  0.75303081  0.21585924     0.03700
C1233       C  0.03374366  0.67561684  0.25828974     0.38300
C1234       C  0.04468918  0.76683150  0.16131388     0.38300
C1235       C  0.02479493  0.78567095  0.22147950     0.36800
C1236       C  0.05686008  0.65728475  0.19851464     0.36800
N1237       N  0.01858679  0.81174718  0.22598446    -0.38100
N1238       N  0.06379902  0.63144572  0.19375041    -0.38100
N1239       N  0.04542790  0.78553433  0.14181943    -0.37500
N1240       N  0.03084347  0.65687539  0.27760770    -0.37500
C1241       C  0.13697667  0.70793599  0.10255608    -0.04200
C1242       C  0.16019205  0.68442021  0.10007726    -0.01300
C1243       C  0.19049602  0.69198871  0.08806738     0.03700
C1244       C  0.19771669  0.72309396  0.07838208    -0.04200
C1245       C  0.17565144  0.74718088  0.08427610    -0.01300
C1246       C  0.14542255  0.73962545  0.09635616     0.03700
C1247       C  0.15254684  0.65223570  0.10888864     0.38300
C1248       C  0.18244095  0.77920341  0.07424458     0.38300
C1249       C  0.12228179  0.76432831  0.09993848     0.36800
C1250       C  0.21312008  0.66719553  0.08233927     0.36800
N1251       N  0.10419978  0.78440341  0.10254798    -0.38100
N1252       N  0.23102936  0.64738645  0.07737131    -0.38100
N1253       N  0.18765774  0.80469783  0.06604979    -0.37500
N1254       N  0.14642009  0.62656223  0.11591012    -0.37500
C1255       C  0.90203196  0.71356806  0.17600504    -0.04200
C1256       C  0.89937688  0.69209591  0.20084799    -0.01300
C1257       C  0.90783508  0.70154590  0.23099432     0.03700
C1258       C  0.91954792  0.73236308  0.23633361    -0.04200
C1259       C  0.91921211  0.75461609  0.21192377    -0.01300
C1260       C  0.91074917  0.74516057  0.18180876     0.03700
C1261       C  0.88924863  0.65990834  0.19498521     0.38300
C1262       C  0.93123032  0.78634132  0.21699577     0.38300
C1263       C  0.91331917  0.76742861  0.15639716     0.36800
C1264       C  0.90765071  0.67877486  0.25601904     0.36800
N1265       N  0.91583653  0.78535227  0.13630552    -0.38100
N1266       N  0.90769198  0.66057990  0.27597821    -0.38100
N1267       N  0.94098455  0.81154852  0.22111002    -0.37500
N1268       N  0.88131892  0.63427889  0.18987253    -0.37500
C1269       C  0.76024896  0.72965307  0.07479819    -0.04200
C1270       C  0.76439912  0.69855021  0.08535749    -0.01300
C1271       C  0.79427779  0.68884177  0.09578039     0.03700
C1272       C  0.81992445  0.71045037  0.09602715    -0.04200
C1273       C  0.81464606  0.74243711  0.08894185    -0.01300
C1274       C  0.78482020  0.75207037  0.07866699     0.03700
C1275       C  0.73834955  0.67618492  0.08326504     0.38300
C1276       C  0.84045654  0.76518698  0.09028335     0.38300
C1277       C  0.78040959  0.78445871  0.06895820     0.36800
C1278       C  0.79876211  0.65655837  0.10555449     0.36800
N1279       N  0.77683267  0.81024329  0.06117875    -0.38100
N1280       N  0.80220378  0.63075509  0.11333509    -0.38100
N1281       N  0.86091995  0.78346702  0.09119048    -0.37500
N1282       N  0.71740954  0.65850436  0.08156156    -0.37500
C1283       C  0.92759946  0.72736788  0.81069423    -0.04200
C1284       C  0.91726657  0.69635716  0.81737042    -0.01300
C1285       C  0.90915463  0.68771182  0.84798514     0.03700
C1286       C  0.90852143  0.71068638  0.87158196    -0.04200
C1287       C  0.91477918  0.74254531  0.86404339    -0.01300
C1288       C  0.92464117  0.75083386  0.83380008     0.03700
C1289       C  0.91772081  0.67286675  0.79302850     0.38300
C1290       C  0.91311926  0.76656337  0.88788489     0.38300
C1291       C  0.93438740  0.78307182  0.82729376     0.36800
C1292       C  0.90311340  0.65490235  0.85552141     0.36800
N1293       N  0.94205392  0.80880327  0.82211009    -0.38100
N1294       N  0.89890253  0.62867499  0.86175818    -0.38100
N1295       N  0.91188497  0.78585905  0.90675526    -0.37500
N1296       N  0.91796850  0.65421501  0.77350701    -0.37500
C1297       C  0.82446308  0.71205237  0.95142028    -0.04200
C1298       C  0.81978886  0.74360534  0.96051087    -0.01300
C1299       C  0.78908825  0.75438548  0.96738184     0.03700
C1300       C  0.76320838  0.73308023  0.96783188    -0.04200
C1301       C  0.76732670  0.70262932  0.95541975    -0.01300
C1302       C  0.79786300  0.69217823  0.94700579     0.03700
C1303       C  0.84680404  0.76451301  0.96444595     0.38300
C1304       C  0.74014715  0.68178815  0.95262923     0.38300
C1305       C  0.80200124  0.66092568  0.93422527     0.36800
C1306       C  0.78425414  0.78698005  0.97600521     0.36800
N1307       N  0.80534644  0.63604930  0.92386126    -0.38100
N1308       N  0.78009418  0.81306952  0.98240585    -0.38100
N1309       N  0.71840256  0.66522772  0.95009115    -0.37500
N1310       N  0.86842264  0.78103058  0.96795915    -0.37500
C1311       C  0.14020168  0.70280753  0.94692671    -0.04200
C1312       C  0.14817051  0.73474840  0.95194448    -0.01300
C1313       C  0.17857542  0.74323214  0.96227475     0.03700
C1314       C  0.20057264  0.71968156  0.96982430    -0.04200
C1315       C  0.19347598  0.68791874  0.96225928    -0.01300
C1316       C  0.16352487  0.67960740  0.95036492     0.03700
C1317       C  0.12412795  0.75870174  0.94937843     0.38300
C1318       C  0.21567380  0.66343126  0.97006670     0.38300
C1319       C  0.15623330  0.64707197  0.94276723     0.36800
C1320       C  0.18579716  0.77608246  0.96841455     0.36800
N1321       N  0.15028434  0.62117619  0.93657788    -0.38100
N1322       N  0.19140421  0.80236387  0.97308143    -0.38100
N1323       N  0.23310370  0.64378855  0.97669921    -0.37500
N1324       N  0.10489478  0.77777191  0.94776871    -0.37500
C1325       C  0.03469112  0.72698995  0.81046555    -0.04200
C1326       C  0.04711181  0.69650988  0.81467246    -0.01300
C1327       C  0.05737685  0.68685522  0.84419086     0.03700
C1328       C  0.05451295  0.70729313  0.86979081    -0.04200
C1329       C  0.04390845  0.73827175  0.86530031    -0.01300
C1330       C  0.03495826  0.74838061  0.83559544     0.03700
C1331       C  0.04685021  0.67429691  0.78919274     0.38300
C1332       C  0.04015221  0.75909699  0.89166391     0.38300
C1333       C  0.02308879  0.78001668  0.83151122     0.36800
C1334       C  0.06964447  0.65543770  0.84865096     0.36800
N1335       N  0.01379545  0.80527684  0.82804955    -0.38100
N1336       N  0.07944779  0.63042839  0.85251677    -0.38100
N1337       N  0.03664338  0.77563528  0.91267647    -0.37500
N1338       N  0.04654098  0.65638226  0.76900864    -0.37500
loop_ 
_geom_bond_atom_site_label_1 
_geom_bond_atom_site_label_2 
_geom_bond_distance 
_geom_bond_site_symmetry_2 
_ccdc_geom_bond_type 
C1            C2   1.408       .  A
C1            C6   1.396       .  A
C1         C1311   1.487       .  S
C2            C3   1.408       .  A
C2            H7   1.084       .  S
C3            C4   1.409       .  A
C3           C75   1.481       .  S
C4            C5   1.409       .  A
C4            H8   1.084       .  S
C5            C6   1.395       .  A
C5         C1328   1.484       .  S
C6            H9   1.085       .  S
C10          C11   1.413       .  A
C10          C15   1.393       .  A
C10        C1297   1.489       .  S
C11          C12   1.415       .  A
C11          H16   1.083       .  S
C12          C13   1.410       .  A
C12          C81   1.488       .  S
C13          C14   1.410       .  A
C13          H17   1.084       .  S
C14          C15   1.394       .  A
C14        C1286   1.486       .  S
C15          H18   1.085       .  S
C19          C20   1.391       .  A
C19          C24   1.409       .  A
C19        C1255   1.482       .  S
C20          C21   1.393       .  A
C20          H25   1.085       .  S
C21          C22   1.411       .  A
C21        C1272   1.485       .  S
C22          C23   1.412       .  A
C22          H26   1.084       .  S
C23          C24   1.409       .  A
C23          C98   1.484       .  S
C24          H27   1.084       .  S
C28          C29   1.396       .  A
C28          C33   1.411       .  A
C28        C1230   1.487       .  S
C29          C30   1.396       .  A
C29          H34   1.085       .  S
C30          C31   1.410       .  A
C30        C1241   1.489       .  S
C31          C32   1.408       .  A
C31          H35   1.084       .  S
C32          C33   1.410       .  A
C32         C104   1.483       .  S
C33          H36   1.084       .  S
C37          C38   1.394       .  A
C37          C42   1.410       .  A
C37        C1202   1.485       .  S
C38          C39   1.395       .  A
C38          H43   1.085       .  S
C39          C40   1.407       .  A
C39        C1213   1.485       .  S
C40          C41   1.409       .  A
C40          H44   1.084       .  S
C41          C42   1.412       .  A
C41         C101   1.481       .  S
C42          H45   1.084       .  S
C46          C47   1.396       .  A
C46          C51   1.408       .  A
C46        C1171   1.484       .  S
C47          C48   1.395       .  A
C47          H52   1.085       .  S
C48          C49   1.408       .  A
C48        C1185   1.485       .  S
C49          C50   1.407       .  A
C49          H53   1.084       .  S
C50          C51   1.409       .  A
C50          C78   1.478       .  S
C51          H54   1.084       .  S
C55          C56   1.388       .  A
C55          C60   1.410       .  A
C55        C1146   1.479       .  S
C56          C57   1.390       .  A
C56          H61   1.085       .  S
C57          C58   1.415       .  A
C57        C1157   1.485       .  S
C58          C59   1.415       .  A
C58          H62   1.083       .  S
C59          C60   1.411       .  A
C59          C84   1.491       .  S
C60          H63   1.084       .  S
C64          C65   1.410       .  A
C64          C69   1.393       .  A
C64        C1118   1.482       .  S
C65          C66   1.410       .  A
C65          H70   1.084       .  S
C66          C67   1.409       .  A
C66          C95   1.482       .  S
C67          C68   1.410       .  A
C67          H71   1.084       .  S
C68          C69   1.394       .  A
C68        C1129   1.488       .  S
C69          H72   1.085       .  S
O73         Zr85   2.430       .  S
O73          C75   1.285       .  A
O74        Zr111   2.475   1_456  S
O74          C75   1.296       .  A
O76         Zr88   2.435       .  S
O76          C78   1.287       .  A
O77        Zr112   2.462   1_556  S
O77          C78   1.294       .  A
O79         Zr88   2.444       .  S
O79          C81   1.288       .  A
O80        Zr111   2.476   1_556  S
O80          C81   1.296       .  A
O82         Zr85   2.440       .  S
O82          C84   1.287       .  A
O83        Zr112   2.485   1_456  S
O83          C84   1.298       .  A
Zr85         O86   2.435       .  S
Zr85         O87   2.438       .  S
Zr85         O91   2.378   1_455  S
Zr85         O92   2.370   1_455  S
Zr85        O115   2.369   1_556  S
Zr85        O117   2.374   1_556  S
O86         H129   0.990       .  S
O87         H128   0.990       .  S
O87         H132   0.990       .  S
Zr88         O89   2.436       .  S
Zr88         O90   2.433       .  S
Zr88         O92   2.374       .  S
Zr88         O91   2.371       .  S
Zr88        O116   2.365   1_556  S
Zr88        O118   2.372   1_556  S
O89         H130   0.990       .  S
O89         H133   0.990       .  S
O90         H123   0.990   1_556  S
O91        Zr111   2.393   1_556  S
O92        Zr112   2.394   1_556  S
O92         H119   0.971       .  S
O93        Zr105   2.444       .  S
O93          C95   1.288       .  A
O94        Zr112   2.464   1_455  S
O94          C95   1.294       .  A
O96        Zr108   2.434       .  S
O96          C98   1.285       .  A
O97        Zr111   2.477       .  S
O97          C98   1.297       .  A
O99        Zr108   2.423       .  S
O99         C101   1.284       .  A
O100       Zr112   2.478       .  S
O100        C101   1.297       .  A
O102       Zr105   2.441       .  S
O102        C104   1.287       .  A
O103       Zr111   2.470   1_455  S
O103        C104   1.296       .  A
Zr105       O106   2.436       .  S
Zr105       O107   2.435       .  S
Zr105       O113   2.371   1_455  S
Zr105       O114   2.377   1_455  S
Zr105       O117   2.374       .  S
Zr105       O115   2.373       .  S
O106        H126   0.990       .  S
O106        H131   0.990       .  S
O107        H127   0.990       .  S
Zr108       O109   2.436       .  S
Zr108       O110   2.437       .  S
Zr108       O114   2.367       .  S
Zr108       O113   2.368       .  S
Zr108       O118   2.374       .  S
Zr108       O116   2.371       .  S
O109        H125   0.990       .  S
O110        H124   0.990       .  S
O110        H134   0.990       .  S
Zr111       O114   2.395       .  S
Zr111       O116   2.392       .  S
Zr111       O117   2.402   1_655  S
Zr112       O113   2.397       .  S
Zr112       O115   2.393   1_655  S
Zr112       O118   2.394       .  S
O113        H121   0.967       .  S
O116        H120   0.972       .  S
O117        H122   0.965       .  S
C135        C136   1.411       .  A
C135        C140   1.394       .  A
C135       C1090   1.487       .  S
C136        C137   1.413       .  A
C136        H141   1.084   1_565  S
C137        C138   1.411       .  A
C137        C209   1.485   1_565  S
C138        C139   1.410       .  A
C138        H142   1.084       .  S
C139        C140   1.392       .  A
C139       C1104   1.484       .  S
C140        H143   1.085       .  S
C144        C145   1.394       .  A
C144        C149   1.409   1_565  A
C144       C1073   1.485       .  S
C145        C146   1.394       .  A
C145        H150   1.085       .  S
C146        C147   1.411       .  A
C146       C1059   1.487       .  S
C147        C148   1.410       .  A
C147        H151   1.084       .  S
C148        C149   1.411   1_565  A
C148        C215   1.485   1_565  S
C149        H152   1.084       .  S
C153        C154   1.393       .  A
C153        C158   1.407       .  A
C153       C1034   1.481       .  S
C154        C155   1.394       .  A
C154        H159   1.085       .  S
C155        C156   1.413       .  A
C155       C1045   1.487       .  S
C156        C157   1.413       .  A
C156        H160   1.084       .  S
C157        C158   1.406       .  A
C157        C232   1.482       .  S
C158        H161   1.084       .  S
C162        C163   1.398       .  A
C162        C167   1.412       .  A
C162       C1006   1.493       .  S
C163        C164   1.398       .  A
C163        H168   1.084       .  S
C164        C165   1.412       .  A
C164       C1020   1.492       .  S
C165        C166   1.413       .  A
C165        H169   1.084       .  S
C166        C167   1.412       .  A
C166        C238   1.490       .  S
C167        H170   1.084       .  S
C171        C172   1.411       .  A
C171        C176   1.391       .  A
C171        C975   1.484       .  S
C172        C173   1.411       .  A
C172        H177   1.084       .  S
C173        C174   1.413       .  A
C173        C235   1.491       .  S
C174        C175   1.415       .  A
C174        H178   1.083       .  S
C175        C176   1.393       .  A
C175        C992   1.489       .  S
C176        H179   1.085       .  S
C180        C181   1.408   1_565  A
C180        C185   1.393       .  A
C180        C947   1.481       .  S
C181        C182   1.408   1_545  A
C181        H186   1.084       .  S
C182        C183   1.413       .  A
C182        C212   1.485   1_565  S
C183        C184   1.413       .  A
C183        H187   1.084       .  S
C184        C185   1.395       .  A
C184        C961   1.493       .  S
C185        H188   1.085       .  S
C189        C190   1.415   1_565  A
C189        C194   1.393       .  A
C189        C922   1.489       .  S
C190        C191   1.415   1_545  A
C190        H195   1.083       .  S
C191        C192   1.410       .  A
C191        C218   1.487   1_565  S
C192        C193   1.408       .  A
C192        H196   1.084       .  S
C193        C194   1.393       .  A
C193        C936   1.482       .  S
C194        H197   1.085       .  S
C198        C199   1.390       .  A
C198        C203   1.415       .  A
C198        C905   1.486       .  S
C199        C200   1.388       .  A
C199        H204   1.085       .  S
C200        C201   1.405       .  A
C200        C894   1.473       .  S
C201        C202   1.406       .  A
C201        H205   1.084       .  S
C202        C203   1.415       .  A
C202        C229   1.484       .  S
C203        H206   1.083       .  S
O207       Zr219   2.431       .  S
O207        C209   1.285       .  A
O208       Zr245   2.480       .  S
O208        C209   1.297       .  A
O210       Zr222   2.445       .  S
O210        C212   1.288       .  A
O211       Zr246   2.469   1_556  S
O211        C212   1.295       .  A
O213       Zr222   2.443       .  S
O213        C215   1.287       .  A
O214       Zr245   2.473   1_556  S
O214        C215   1.296       .  A
O216       Zr219   2.428       .  S
O216        C218   1.284       .  A
O217       Zr246   2.486       .  S
O217        C218   1.299       .  A
Zr219       O220   2.436   1_545  S
Zr219       O221   2.434       .  S
Zr219       O225   2.372       .  S
Zr219       O226   2.371       .  S
Zr219       O249   2.373       .  S
Zr219       O251   2.368       .  S
O220        H263   0.990       .  S
O221        H262   0.990       .  S
O221        H266   0.990       .  S
Zr222       O223   2.436   1_545  S
Zr222       O224   2.438       .  S
Zr222       O226   2.374   1_556  S
Zr222       O225   2.378   1_556  S
Zr222       O250   2.366       .  S
Zr222       O252   2.374       .  S
O223        H264   0.990       .  S
O223        H267   0.990       .  S
O224        H257   0.990       .  S
O225       Zr245   2.397       .  S
O226       Zr246   2.401       .  S
O226        H253   0.966       .  S
O227       Zr239   2.436       .  S
O227        C229   1.286       .  A
O228       Zr246   2.474       .  S
O228        C229   1.296       .  A
O230       Zr242   2.438       .  S
O230        C232   1.287       .  A
O231       Zr245   2.471   1_556  S
O231        C232   1.296       .  A
O233       Zr242   2.454       .  S
O233        C235   1.289       .  A
O234       Zr246   2.475   1_556  S
O234        C235   1.296       .  A
O236       Zr239   2.435       .  S
O236        C238   1.285       .  A
O237       Zr245   2.488       .  S
O237        C238   1.299       .  A
Zr239       O240   2.435       .  S
Zr239       O241   2.436       .  S
Zr239       O247   2.370       .  S
Zr239       O248   2.376       .  S
Zr239       O251   2.373       .  S
Zr239       O249   2.373       .  S
O240        H260   0.990       .  S
O240        H265   0.990       .  S
O241        H261   0.990       .  S
Zr242       O243   2.437       .  S
Zr242       O244   2.436       .  S
Zr242       O248   2.379   1_556  S
Zr242       O247   2.370   1_556  S
Zr242       O252   2.376       .  S
Zr242       O250   2.373       .  S
O243        H259   0.990       .  S
O244        H258   0.990       .  S
O244        H268   0.990       .  S
Zr245       O248   2.400       .  S
Zr245       O250   2.401   1_554  S
Zr245       O251   2.395       .  S
Zr246       O247   2.397       .  S
Zr246       O249   2.392       .  S
Zr246       O252   2.399   1_554  S
O247        H255   0.965       .  S
O250        H254   0.965       .  S
O251        H256   0.965       .  S
C269        C270   1.411   1_565  A
C269        C274   1.391       .  A
C269        C866   1.486   1_565  S
C270        C271   1.413   1_545  A
C270        H275   1.084       .  S
C271        C272   1.412       .  A
C271        C349   1.487   1_565  S
C272        C273   1.411       .  A
C272        H276   1.084       .  S
C273        C274   1.389       .  A
C273        C877   1.484       .  S
C274        H277   1.085       .  S
C278        C279   1.408   1_565  A
C278        C283   1.396       .  A
C278        C849   1.485       .  S
C279        C280   1.408   1_545  A
C279        H284   1.084       .  S
C280        C281   1.411       .  A
C280        C343   1.483   1_565  S
C281        C282   1.412       .  A
C281        H285   1.084       .  S
C282        C283   1.398       .  A
C282        C835   1.489       .  S
C283        H286   1.084       .  S
C287        C288   1.407       .  A
C287        C292   1.392       .  A
C287        C807   1.475       .  S
C288        C289   1.407       .  A
C288        H293   1.084       .  S
C289        C290   1.411       .  A
C289        C372   1.481       .  S
C290        C291   1.411       .  A
C290        H294   1.084       .  S
C291        C292   1.393       .  A
C291        C824   1.486       .  S
C292        H295   1.085       .  S
C296        C297   1.413       .  A
C296        C301   1.388       .  A
C296        C779   1.485       .  S
C297        C298   1.413       .  A
C297        H302   1.083       .  S
C298        C299   1.414       .  A
C298        C366   1.489       .  S
C299        C300   1.410       .  A
C299        H303   1.084       .  S
C300        C301   1.388       .  A
C300        C793   1.479       .  S
C301        H304   1.086       .  S
C305        C306   1.390       .  A
C305        C310   1.410       .  A
C305        C754   1.480       .  S
C306        C307   1.392       .  A
C306        H311   1.085       .  S
C307        C308   1.407       .  A
C307        C765   1.479       .  S
C308        C309   1.410       .  A
C308        H312   1.084       .  S
C309        C310   1.410       .  A
C309        C363   1.481       .  S
C310        H313   1.084       .  S
C314        C315   1.418   1_565  A
C314        C319   1.396       .  A
C314        C723   1.499       .  S
C315        C316   1.418   1_545  A
C315        H320   1.083       .  S
C316        C317   1.413       .  A
C316        C352   1.498   1_565  S
C317        C318   1.412       .  A
C317        H321   1.084       .  S
C318        C319   1.395       .  A
C318        C737   1.491       .  S
C319        H322   1.085       .  S
C323        C324   1.408   1_565  A
C323        C328   1.394       .  A
C323        C698   1.483       .  S
C324        C325   1.410   1_545  A
C324        H329   1.084       .  S
C325        C326   1.411       .  A
C325        C346   1.483   1_565  S
C326        C327   1.411       .  A
C326        H330   1.084       .  S
C327        C328   1.393       .  A
C327        C709   1.485       .  S
C328        H331   1.085       .  S
C332        C333   1.411       .  A
C332        C337   1.397       .  A
C332        C667   1.491       .  S
C333        C334   1.408       .  A
C333        H338   1.084       .  S
C334        C335   1.412       .  A
C334        C369   1.485       .  S
C335        C336   1.411       .  A
C335        H339   1.084       .  S
C336        C337   1.396       .  A
C336        C681   1.489       .  S
C337        H340   1.085       .  S
O341       Zr353   2.437       .  S
O341        C343   1.287       .  A
O342       Zr379   2.472       .  S
O342        C343   1.296       .  A
O344       Zr356   2.436       .  S
O344        C346   1.286       .  A
O345       Zr380   2.471   1_455  S
O345        C346   1.296       .  A
O347       Zr356   2.452       .  S
O347        C349   1.289       .  A
O348       Zr379   2.465   1_455  S
O348        C349   1.294       .  A
O350       Zr353   2.455       .  S
O350        C352   1.290       .  A
O351       Zr380   2.482       .  S
O351        C352   1.298       .  A
Zr353       O354   2.433   1_545  S
Zr353       O355   2.438       .  S
Zr353       O359   2.379       .  S
Zr353       O360   2.369       .  S
Zr353       O383   2.369       .  S
Zr353       O385   2.381       .  S
O354        H397   0.990       .  S
O355        H396   0.990       .  S
O355        H400   0.990       .  S
Zr356       O357   2.437   1_545  S
Zr356       O358   2.434       .  S
Zr356       O360   2.379   1_455  S
Zr356       O359   2.369   1_455  S
Zr356       O384   2.367       .  S
Zr356       O386   2.376       .  S
O357        H398   0.990       .  S
O357        H401   0.990       .  S
O358        H391   0.990       .  S
O359       Zr379   2.396       .  S
O360       Zr380   2.396       .  S
O360        H387   0.965   1_545  S
O361       Zr373   2.434       .  S
O361        C363   1.286       .  A
O362       Zr380   2.469       .  S
O362        C363   1.295       .  A
O364       Zr376   2.448       .  S
O364        C366   1.288       .  A
O365       Zr379   2.476   1_455  S
O365        C366   1.296       .  A
O367       Zr376   2.447       .  S
O367        C369   1.288       .  A
O368       Zr380   2.466   1_455  S
O368        C369   1.295       .  A
O370       Zr373   2.433       .  S
O370        C372   1.284       .  A
O371       Zr379   2.470       .  S
O371        C372   1.295       .  A
Zr373       O374   2.438       .  S
Zr373       O375   2.436       .  S
Zr373       O381   2.377       .  S
Zr373       O382   2.376       .  S
Zr373       O385   2.371       .  S
Zr373       O383   2.372       .  S
O374        H394   0.990       .  S
O374        H399   0.990       .  S
O375        H395   0.990       .  S
Zr376       O377   2.435       .  S
Zr376       O378   2.440       .  S
Zr376       O382   2.379   1_455  S
Zr376       O381   2.377   1_455  S
Zr376       O386   2.371       .  S
Zr376       O384   2.370       .  S
O377        H393   0.989   1_455  S
O378        H392   0.990       .  S
O378        H402   0.990       .  S
Zr379       O382   2.398       .  S
Zr379       O384   2.394   1_655  S
Zr379       O385   2.401       .  S
Zr380       O381   2.404       .  S
Zr380       O383   2.390       .  S
Zr380       O386   2.398   1_655  S
O381        H389   0.966       .  S
O384        H388   0.965       .  S
O385        H390   0.967       .  S
C403        C404   1.390       .  A
C403        C408   1.414       .  A
C403       C1199   1.488       .  S
C404        C405   1.390       .  A
C404        H423   1.088       .  S
C405        C406   1.410       .  A
C405       C1115   1.484   1_655  S
C406        C407   1.420       .  A
C406        C413   1.405   1_655  A
C407        C408   1.425       .  A
C407        C412   1.416       .  A
C408        C409   1.403       .  A
C409        C410   1.397       .  A
C409        H419   1.083       .  S
C410        C411   1.406       .  A
C410        H420   1.083       .  S
C411        C412   1.420       .  A
C411        C418   1.409       .  A
C412        C415   1.427       .  A
C413        C414   1.396       .  A
C413        H421   1.083       .  S
C414        C415   1.403   1_455  A
C414        H422   1.083       .  S
C415        C416   1.415       .  A
C416        C417   1.389       .  A
C416        C670   1.492   1_655  S
C417        C418   1.388       .  A
C417        H424   1.088       .  S
C418        C751   1.479       .  S
C425        C426   1.388       .  A
C425        C430   1.416       .  A
C425        C919   1.488       .  S
C426        C427   1.387       .  A
C426        H445   1.088       .  S
C427        C428   1.409       .  A
C427        C891   1.478       .  S
C428        C429   1.421       .  A
C428        C435   1.405       .  A
C429        C430   1.426       .  A
C429        C434   1.417       .  A
C430        C431   1.404       .  A
C431        C432   1.399       .  A
C431        H441   1.083   1_545  S
C432        C433   1.407       .  A
C432        H442   1.083   1_545  S
C433        C434   1.419       .  A
C433        C440   1.415       .  A
C434        C437   1.422       .  A
C435        C436   1.396       .  A
C435        H443   1.083       .  S
C436        C437   1.404       .  A
C436        H444   1.083       .  S
C437        C438   1.415       .  A
C438        C439   1.394       .  A
C438        C684   1.496       .  S
C439        C440   1.394       .  A
C439        H446   1.087       .  S
C440        C695   1.488       .  S
C447        C448   1.393       .  A
C447        C452   1.419       .  A
C447       C1132   1.493       .  S
C448        C449   1.388       .  A
C448        H467   1.087       .  S
C449        C450   1.410       .  A
C449       C1143   1.485   1_554  S
C450        C451   1.421       .  A
C450        C457   1.404   1_554  A
C451        C452   1.423       .  A
C451        C456   1.418       .  A
C452        C453   1.406       .  A
C453        C454   1.400       .  A
C453        H463   1.083       .  S
C454        C455   1.405       .  A
C454        H464   1.083       .  S
C455        C456   1.422       .  A
C455        C462   1.417       .  A
C456        C459   1.423       .  A
C457        C458   1.395       .  A
C457        H465   1.083       .  S
C458        C459   1.404   1_556  A
C458        H466   1.083       .  S
C459        C460   1.412       .  A
C460        C461   1.388       .  A
C460        C978   1.487   1_554  S
C461        C462   1.392       .  A
C461        H468   1.088       .  S
C462        C908   1.490       .  S
C469        C470   1.391       .  A
C469        C474   1.416       .  A
C469       C1087   1.486       .  S
C470        C471   1.387       .  A
C470        H489   1.088       .  S
C471        C472   1.417       .  A
C471       C1017   1.493       .  S
C472        C473   1.427       .  A
C472        C479   1.403       .  A
C473        C474   1.421       .  A
C473        C478   1.420       .  A
C474        C475   1.407       .  A
C475        C476   1.402       .  A
C475        H485   1.083   1_545  S
C476        C477   1.405       .  A
C476        H486   1.083   1_545  S
C477        C478   1.426       .  A
C477        C484   1.424       .  A
C478        C481   1.419       .  A
C479        C480   1.398       .  A
C479        H487   1.083       .  S
C480        C481   1.406       .  A
C480        H488   1.083       .  S
C481        C482   1.412       .  A
C482        C483   1.390       .  A
C482        C768   1.486       .  S
C483        C484   1.392       .  A
C483        H490   1.087       .  S
C484        C726   1.504       .  S
C491        C492   1.390       .  A
C491        C496   1.415       .  A
C491       C1258   1.488       .  S
C492        C493   1.389   1_655  A
C492        H511   1.088       .  S
C493        C494   1.415       .  A
C493       C1227   1.492       .  S
C494        C495   1.424   1_455  A
C494        C501   1.404       .  A
C495        C496   1.422       .  A
C495        C500   1.419       .  A
C496        C497   1.406       .  A
C497        C498   1.400       .  A
C497        H507   1.083       .  S
C498        C499   1.405       .  A
C498        H508   1.083       .  S
C499        C500   1.425       .  A
C499        C506   1.418       .  A
C500        C503   1.422   1_655  A
C501        C502   1.397       .  A
C501        H509   1.083       .  S
C502        C503   1.404       .  A
C502        H510   1.083       .  S
C503        C504   1.412       .  A
C504        C505   1.390   1_455  A
C504        C712   1.486       .  S
C505        C506   1.390       .  A
C505        H512   1.088       .  S
C506        C740   1.491       .  S
C513        C514   1.386       .  A
C513        C518   1.410       .  A
C513        C950   1.481       .  S
C514        C515   1.386       .  A
C514        H533   1.088       .  S
C515        C516   1.410       .  A
C515        C989   1.481       .  S
C516        C517   1.424       .  A
C516        C523   1.404       .  A
C517        C518   1.423       .  A
C517        C522   1.414       .  A
C518        C519   1.404       .  A
C519        C520   1.397       .  A
C519        H529   1.083   1_545  S
C520        C521   1.405       .  A
C520        H530   1.083   1_545  S
C521        C522   1.421       .  A
C521        C528   1.413       .  A
C522        C525   1.421       .  A
C523        C524   1.396       .  A
C523        H531   1.083       .  S
C524        C525   1.404       .  A
C524        H532   1.083       .  S
C525        C526   1.410       .  A
C526        C527   1.390       .  A
C526        C796   1.484       .  S
C527        C528   1.392       .  A
C527        H534   1.087       .  S
C528        C863   1.492       .  S
C535        C536   1.388       .  A
C535        C540   1.413       .  A
C535       C1188   1.490       .  S
C536        C537   1.391   1_655  A
C536        H555   1.087       .  S
C537        C538   1.414       .  A
C537       C1160   1.484       .  S
C538        C539   1.420   1_455  A
C538        C545   1.406       .  A
C539        C540   1.424       .  A
C539        C544   1.415       .  A
C540        C541   1.403       .  A
C541        C542   1.395       .  A
C541        H551   1.083       .  S
C542        C543   1.404       .  A
C542        H552   1.083       .  S
C543        C544   1.420       .  A
C543        C550   1.407       .  A
C544        C547   1.424   1_655  A
C545        C546   1.400       .  A
C545        H553   1.083       .  S
C546        C547   1.405       .  A
C546        H554   1.083       .  S
C547        C548   1.417       .  A
C548        C549   1.389   1_455  A
C548        C782   1.488       .  S
C549        C550   1.388       .  A
C549        H556   1.088       .  S
C550        C810   1.478       .  S
C557        C558   1.391   1_556  A
C557        C562   1.418       .  A
C557       C1314   1.493       .  S
C558        C559   1.390       .  A
C558        H577   1.087       .  S
C559        C560   1.414       .  A
C559       C1244   1.491       .  S
C560        C561   1.423       .  A
C560        C567   1.405       .  A
C561        C562   1.423   1_554  A
C561        C566   1.420       .  A
C562        C563   1.406       .  A
C563        C564   1.399       .  A
C563        H573   1.083       .  S
C564        C565   1.404       .  A
C564        H574   1.083       .  S
C565        C566   1.423   1_556  A
C565        C572   1.417       .  A
C566        C569   1.422       .  A
C567        C568   1.395       .  A
C567        H575   1.083       .  S
C568        C569   1.404       .  A
C568        H576   1.083       .  S
C569        C570   1.412       .  A
C570        C571   1.390       .  A
C570        C933   1.487       .  S
C571        C572   1.391   1_554  A
C571        H578   1.087       .  S
C572        C964   1.493       .  S
C579        C580   1.392       .  A
C579        C584   1.417       .  A
C579       C1216   1.492       .  S
C580        C581   1.390   1_554  A
C580        H599   1.087       .  S
C581        C582   1.412       .  A
C581       C1174   1.487       .  S
C582        C583   1.422   1_556  A
C582        C589   1.403       .  A
C583        C584   1.422       .  A
C583        C588   1.419       .  A
C584        C585   1.406       .  A
C585        C586   1.399       .  A
C585        H595   1.083       .  S
C586        C587   1.405       .  A
C586        H596   1.083       .  S
C587        C588   1.424       .  A
C587        C594   1.417       .  A
C588        C591   1.421   1_554  A
C589        C590   1.395       .  A
C589        H597   1.083       .  S
C590        C591   1.406       .  A
C590        H598   1.083       .  S
C591        C592   1.412       .  A
C592        C593   1.392   1_556  A
C592       C1031   1.487       .  S
C593        C594   1.392       .  A
C593        H600   1.087       .  S
C594       C1003   1.493       .  S
C601        C602   1.392       .  A
C601        C606   1.412       .  A
C601       C1283   1.490       .  S
C602        C603   1.390   1_655  A
C602        H621   1.087       .  S
C603        C604   1.417       .  A
C603       C1325   1.490       .  S
C604        C605   1.423   1_455  A
C604        C611   1.405       .  A
C605        C606   1.420       .  A
C605        C610   1.417       .  A
C606        C607   1.405       .  A
C607        C608   1.397       .  A
C607        H617   1.083       .  S
C608        C609   1.403       .  A
C608        H618   1.083       .  S
C609        C610   1.424       .  A
C609        C616   1.413       .  A
C610        C613   1.422   1_655  A
C611        C612   1.400       .  A
C611        H619   1.083       .  S
C612        C613   1.405       .  A
C612        H620   1.083       .  S
C613        C614   1.413       .  A
C614        C615   1.388   1_455  A
C614        C880   1.483       .  S
C615        C616   1.384       .  A
C615        H622   1.088       .  S
C616        C838   1.488       .  S
C623        C624   1.393       .  A
C623        C628   1.416       .  A
C623       C1048   1.493       .  S
C624        C625   1.392       .  A
C624        H643   1.087       .  S
C625        C626   1.414       .  A
C625       C1076   1.489       .  S
C626        C627   1.422       .  A
C626        C633   1.405       .  A
C627        C628   1.422       .  A
C627        C632   1.419       .  A
C628        C629   1.404       .  A
C629        C630   1.398       .  A
C629        H639   1.083       .  S
C630        C631   1.406       .  A
C630        H640   1.083       .  S
C631        C632   1.423       .  A
C631        C638   1.416       .  A
C632        C635   1.423       .  A
C633        C634   1.398       .  A
C633        H641   1.083   1_545  S
C634        C635   1.405       .  A
C634        H642   1.083   1_545  S
C635        C636   1.414       .  A
C636        C637   1.391       .  A
C636        C852   1.488       .  S
C637        C638   1.394       .  A
C637        H644   1.087       .  S
C638        C821   1.491       .  S
C645        C646   1.391       .  A
C645        C650   1.411       .  A
C645       C1269   1.485       .  S
C646        C647   1.392   1_554  A
C646        H665   1.088       .  S
C647        C648   1.417       .  A
C647       C1300   1.491       .  S
C648        C649   1.424   1_556  A
C648        C655   1.404       .  A
C649        C650   1.421       .  A
C649        C654   1.418       .  A
C650        C651   1.405       .  A
C651        C652   1.396       .  A
C651        H661   1.083       .  S
C652        C653   1.403       .  A
C652        H662   1.083       .  S
C653        C654   1.423       .  A
C653        C660   1.411       .  A
C654        C657   1.422   1_554  A
C655        C656   1.399       .  A
C655        H663   1.083       .  S
C656        C657   1.406       .  A
C656        H664   1.083       .  S
C657        C658   1.416       .  A
C658        C659   1.390   1_556  A
C658       C1062   1.490       .  S
C659        C660   1.388       .  A
C659        H666   1.088       .  S
C660       C1101   1.485       .  S
C667        C668   1.415       .  A
C667        C672   1.413       .  A
C668        C669   1.411       .  A
C668        C673   1.450       .  S
C669        C670   1.412       .  A
C669        C676   1.451       .  S
C670        C671   1.415       .  A
C671        C672   1.411       .  A
C671        C674   1.450       .  S
C672        C675   1.451       .  S
C673        N680   1.157       .  T
C674        N679   1.157       .  T
C675        N677   1.157       .  T
C676        N678   1.157       .  T
C681        C682   1.411       .  A
C681        C686   1.413       .  A
C682        C683   1.409       .  A
C682        C687   1.451       .  S
C683        C684   1.415       .  A
C683        C690   1.450       .  S
C684        C685   1.413       .  A
C685        C686   1.414       .  A
C685        C688   1.449       .  S
C686        C689   1.449       .  S
C687        N694   1.157       .  T
C688        N693   1.157       .  T
C689        N691   1.157       .  T
C690        N692   1.157       .  T
C695        C696   1.414       .  A
C695        C700   1.413       .  A
C696        C697   1.405       .  A
C696        C701   1.451       .  S
C697        C698   1.410   1_545  A
C697        C704   1.451       .  S
C698        C699   1.412       .  A
C699        C700   1.414   1_565  A
C699        C702   1.450       .  S
C700        C703   1.449   1_545  S
C701        N708   1.157       .  T
C702        N707   1.157       .  T
C703        N705   1.157       .  T
C704        N706   1.157       .  T
C709        C710   1.412       .  A
C709        C714   1.412       .  A
C710        C711   1.411       .  A
C710        C715   1.450       .  S
C711        C712   1.410       .  A
C711        C718   1.448       .  S
C712        C713   1.413       .  A
C713        C714   1.410       .  A
C713        C716   1.452       .  S
C714        C717   1.450       .  S
C715        N722   1.157       .  T
C716        N721   1.157       .  T
C717        N719   1.157       .  T
C718        N720   1.157       .  T
C723        C724   1.415       .  A
C723        C728   1.411       .  A
C724        C725   1.414   1_565  A
C724        C729   1.450       .  S
C725        C726   1.417       .  A
C725        C732   1.451       .  S
C726        C727   1.421   1_545  A
C727        C728   1.416       .  A
C727        C730   1.450       .  S
C728        C731   1.450       .  S
C729        N736   1.157       .  T
C730        N735   1.157   1_565  T
C731        N733   1.157       .  T
C732        N734   1.157       .  T
C737        C738   1.412       .  A
C737        C742   1.412       .  A
C738        C739   1.414       .  A
C738        C743   1.450       .  S
C739        C740   1.415       .  A
C739        C746   1.450       .  S
C740        C741   1.413       .  A
C741        C742   1.411       .  A
C741        C744   1.451       .  S
C742        C745   1.450       .  S
C743        N750   1.157       .  T
C744        N749   1.157       .  T
C745        N747   1.157       .  T
C746        N748   1.157       .  T
C751        C752   1.411       .  A
C751        C756   1.411       .  A
C752        C753   1.408       .  A
C752        C757   1.452       .  S
C753        C754   1.413       .  A
C753        C760   1.450       .  S
C754        C755   1.410       .  A
C755        C756   1.407       .  A
C755        C758   1.450       .  S
C756        C759   1.450       .  S
C757        N764   1.157       .  T
C758        N763   1.157       .  T
C759        N761   1.157       .  T
C760        N762   1.157       .  T
C765        C766   1.411       .  A
C765        C770   1.410       .  A
C766        C767   1.412       .  A
C766        C771   1.450       .  S
C767        C768   1.415       .  A
C767        C774   1.450       .  S
C768        C769   1.415       .  A
C769        C770   1.404       .  A
C769        C772   1.452       .  S
C770        C773   1.452       .  S
C771        N778   1.157       .  T
C772        N777   1.157       .  T
C773        N775   1.157       .  T
C774        N776   1.157       .  T
C779        C780   1.409       .  A
C779        C784   1.414       .  A
C780        C781   1.412       .  A
C780        C785   1.451       .  S
C781        C782   1.417       .  A
C781        C788   1.449       .  S
C782        C783   1.413       .  A
C783        C784   1.407       .  A
C783        C786   1.452       .  S
C784        C787   1.451       .  S
C785        N792   1.157       .  T
C786        N791   1.157       .  T
C787        N789   1.157       .  T
C788        N790   1.157       .  T
C793        C794   1.411       .  A
C793        C798   1.411       .  A
C794        C795   1.411       .  A
C794        C799   1.450       .  S
C795        C796   1.411       .  A
C795        C802   1.448       .  S
C796        C797   1.414       .  A
C797        C798   1.406       .  A
C797        C800   1.452       .  S
C798        C801   1.451       .  S
C799        N806   1.157       .  T
C800        N805   1.157       .  T
C801        N803   1.157       .  T
C802        N804   1.157       .  T
C807        C808   1.412       .  A
C807        C812   1.409       .  A
C808        C809   1.410       .  A
C808        C813   1.449       .  S
C809        C810   1.409       .  A
C809        C816   1.450       .  S
C810        C811   1.412       .  A
C811        C812   1.404       .  A
C811        C814   1.451       .  S
C812        C815   1.452       .  S
C813        N820   1.157       .  T
C814        N819   1.157       .  T
C815        N817   1.157       .  T
C816        N818   1.157       .  T
C821        C822   1.414       .  A
C821        C826   1.414       .  A
C822        C823   1.410       .  A
C822        C827   1.451       .  S
C823        C824   1.414       .  A
C823        C830   1.452       .  S
C824        C825   1.410       .  A
C825        C826   1.411       .  A
C825        C828   1.450       .  S
C826        C829   1.449       .  S
C827        N834   1.157       .  T
C828        N833   1.157       .  T
C829        N831   1.157       .  T
C830        N832   1.157       .  T
C835        C836   1.413       .  A
C835        C840   1.412       .  A
C836        C837   1.410       .  A
C836        C841   1.451       .  S
C837        C838   1.414       .  A
C837        C844   1.452       .  S
C838        C839   1.414       .  A
C839        C840   1.412       .  A
C839        C842   1.451       .  S
C840        C843   1.450       .  S
C841        N848   1.157       .  T
C842        N847   1.157       .  T
C843        N845   1.157       .  T
C844        N846   1.157       .  T
C849        C850   1.410   1_565  A
C849        C854   1.413       .  A
C850        C851   1.408       .  A
C850        C855   1.450       .  S
C851        C852   1.414       .  A
C851        C858   1.452       .  S
C852        C853   1.411   1_545  A
C853        C854   1.414       .  A
C853        C856   1.449       .  S
C854        C857   1.450       .  S
C855        N862   1.157       .  T
C856        N861   1.157       .  T
C857        N859   1.157       .  T
C858        N860   1.157       .  T
C863        C864   1.415       .  A
C863        C868   1.416       .  A
C864        C865   1.412       .  A
C864        C869   1.450       .  S
C865        C866   1.412       .  A
C865        C872   1.450   1_545  S
C866        C867   1.413       .  A
C867        C868   1.408       .  A
C867        C870   1.452       .  S
C868        C871   1.452       .  S
C869        N876   1.157       .  T
C870        N875   1.157       .  T
C871        N873   1.157       .  T
C872        N874   1.157       .  T
C877        C878   1.411       .  A
C877        C882   1.414       .  A
C878        C879   1.410       .  A
C878        C883   1.450       .  S
C879        C880   1.412       .  A
C879        C886   1.450       .  S
C880        C881   1.414       .  A
C881        C882   1.410       .  A
C881        C884   1.452       .  S
C882        C885   1.451       .  S
C883        N890   1.157       .  T
C884        N889   1.157       .  T
C885        N887   1.157       .  T
C886        N888   1.157       .  T
C891        C892   1.412       .  A
C891        C896   1.414       .  A
C892        C893   1.408       .  A
C892        C897   1.450       .  S
C893        C894   1.409       .  A
C893        C900   1.450       .  S
C894        C895   1.408       .  A
C895        C896   1.405       .  A
C895        C898   1.452       .  S
C896        C899   1.452       .  S
C897        N904   1.157       .  T
C898        N903   1.157       .  T
C899        N901   1.157       .  T
C900        N902   1.157       .  T
C905        C906   1.413       .  A
C905        C910   1.410       .  A
C906        C907   1.410       .  A
C906        C911   1.451       .  S
C907        C908   1.414       .  A
C907        C914   1.450       .  S
C908        C909   1.414       .  A
C909        C910   1.411       .  A
C909        C912   1.449       .  S
C910        C913   1.450       .  S
C911        N918   1.157       .  T
C912        N917   1.157       .  T
C913        N915   1.157       .  T
C914        N916   1.157       .  T
C919        C920   1.412       .  A
C919        C924   1.412   1_545  A
C920        C921   1.411   1_545  A
C920        C925   1.450       .  S
C921        C922   1.412       .  A
C921        C928   1.450       .  S
C922        C923   1.413       .  A
C923        C924   1.414       .  A
C923        C926   1.449       .  S
C924        C927   1.449       .  S
C925        N932   1.157       .  T
C926        N931   1.157       .  T
C927        N929   1.157       .  T
C928        N930   1.157       .  T
C933        C934   1.412       .  A
C933        C938   1.414       .  A
C934        C935   1.411       .  A
C934        C939   1.449       .  S
C935        C936   1.411       .  A
C935        C942   1.450       .  S
C936        C937   1.410       .  A
C937        C938   1.407       .  A
C937        C940   1.451       .  S
C938        C941   1.451       .  S
C939        N946   1.157       .  T
C940        N945   1.157       .  T
C941        N943   1.157       .  T
C942        N944   1.157       .  T
C947        C948   1.411       .  A
C947        C952   1.411   1_565  A
C948        C949   1.408   1_565  A
C948        C953   1.450       .  S
C949        C950   1.411       .  A
C949        C956   1.450       .  S
C950        C951   1.414       .  A
C951        C952   1.410       .  A
C951        C954   1.452       .  S
C952        C955   1.451       .  S
C953        N960   1.157       .  T
C954        N959   1.157       .  T
C955        N957   1.157       .  T
C956        N958   1.157       .  T
C961        C962   1.415       .  A
C961        C966   1.413       .  A
C962        C963   1.410       .  A
C962        C967   1.452       .  S
C963        C964   1.415       .  A
C963        C970   1.451       .  S
C964        C965   1.414       .  A
C965        C966   1.413       .  A
C965        C968   1.449       .  S
C966        C969   1.450       .  S
C967        N974   1.157       .  T
C968        N973   1.157       .  T
C969        N971   1.157       .  T
C970        N972   1.157       .  T
C975        C976   1.411       .  A
C975        C980   1.412       .  A
C976        C977   1.411       .  A
C976        C981   1.450       .  S
C977        C978   1.414       .  A
C977        C984   1.450       .  S
C978        C979   1.414       .  A
C979        C980   1.407       .  A
C979        C982   1.453       .  S
C980        C983   1.450       .  S
C981        N988   1.157       .  T
C982        N987   1.157   1_556  T
C983        N985   1.157       .  T
C984        N986   1.157       .  T
C989        C990   1.409       .  A
C989        C994   1.410       .  A
C990        C991   1.409       .  A
C990        C995   1.452       .  S
C991        C992   1.417       .  A
C991        C998   1.449       .  S
C992        C993   1.413       .  A
C993        C994   1.410       .  A
C993        C996   1.449       .  S
C994        C997   1.449       .  S
C995       N1002   1.157       .  T
C996       N1001   1.157       .  T
C997        N999   1.157       .  T
C998       N1000   1.157       .  T
C1003      C1004   1.412       .  A
C1003      C1008   1.412       .  A
C1004      C1005   1.411       .  A
C1004      C1009   1.451       .  S
C1005      C1006   1.414       .  A
C1005      C1012   1.449       .  S
C1006      C1007   1.413       .  A
C1007      C1008   1.415       .  A
C1007      C1010   1.450       .  S
C1008      C1011   1.449       .  S
C1009      N1016   1.157       .  T
C1010      N1015   1.157       .  T
C1011      N1013   1.157       .  T
C1012      N1014   1.157       .  T
C1017      C1018   1.414       .  A
C1017      C1022   1.414       .  A
C1018      C1019   1.415       .  A
C1018      C1023   1.450       .  S
C1019      C1020   1.413       .  A
C1019      C1026   1.450       .  S
C1020      C1021   1.412       .  A
C1021      C1022   1.412       .  A
C1021      C1024   1.450       .  S
C1022      C1025   1.451       .  S
C1023      N1030   1.157       .  T
C1024      N1029   1.157       .  T
C1025      N1027   1.157       .  T
C1026      N1028   1.157       .  T
C1031      C1032   1.413       .  A
C1031      C1036   1.412       .  A
C1032      C1033   1.408       .  A
C1032      C1037   1.452       .  S
C1033      C1034   1.411       .  A
C1033      C1040   1.450       .  S
C1034      C1035   1.411       .  A
C1035      C1036   1.409       .  A
C1035      C1038   1.451       .  S
C1036      C1039   1.449       .  S
C1037      N1044   1.157       .  T
C1038      N1043   1.157       .  T
C1039      N1041   1.157       .  T
C1040      N1042   1.157       .  T
C1045      C1046   1.412       .  A
C1045      C1050   1.412       .  A
C1046      C1047   1.413       .  A
C1046      C1051   1.450       .  S
C1047      C1048   1.414       .  A
C1047      C1054   1.449       .  S
C1048      C1049   1.415       .  A
C1049      C1050   1.409       .  A
C1049      C1052   1.451       .  S
C1050      C1053   1.450       .  S
C1051      N1058   1.157       .  T
C1052      N1057   1.157       .  T
C1053      N1055   1.157       .  T
C1054      N1056   1.157       .  T
C1059      C1060   1.410       .  A
C1059      C1064   1.412       .  A
C1060      C1061   1.410       .  A
C1060      C1065   1.451       .  S
C1061      C1062   1.416       .  A
C1061      C1068   1.451       .  S
C1062      C1063   1.416       .  A
C1063      C1064   1.411       .  A
C1063      C1066   1.452       .  S
C1064      C1067   1.451       .  S
C1065      N1072   1.157       .  T
C1066      N1071   1.157       .  T
C1067      N1069   1.157       .  T
C1068      N1070   1.157       .  T
C1073      C1074   1.413       .  A
C1073      C1078   1.410   1_565  A
C1074      C1075   1.414   1_565  A
C1074      C1079   1.450       .  S
C1075      C1076   1.412       .  A
C1075      C1082   1.449   1_545  S
C1076      C1077   1.414       .  A
C1077      C1078   1.408       .  A
C1077      C1080   1.451       .  S
C1078      C1081   1.451       .  S
C1079      N1086   1.157       .  T
C1080      N1085   1.157       .  T
C1081      N1083   1.157       .  T
C1082      N1084   1.157       .  T
C1087      C1088   1.412   1_545  A
C1087      C1092   1.412       .  A
C1088      C1089   1.413       .  A
C1088      C1093   1.449       .  S
C1089      C1090   1.412       .  A
C1089      C1096   1.450       .  S
C1090      C1091   1.413       .  A
C1091      C1092   1.408   1_565  A
C1091      C1094   1.451       .  S
C1092      C1095   1.452       .  S
C1093      N1100   1.157       .  T
C1094      N1099   1.157       .  T
C1095      N1097   1.157       .  T
C1096      N1098   1.157       .  T
C1101      C1102   1.412       .  A
C1101      C1106   1.413       .  A
C1102      C1103   1.412       .  A
C1102      C1107   1.449       .  S
C1103      C1104   1.412       .  A
C1103      C1110   1.450       .  S
C1104      C1105   1.411       .  A
C1105      C1106   1.408       .  A
C1105      C1108   1.450       .  S
C1106      C1109   1.452       .  S
C1107      N1114   1.157       .  T
C1108      N1113   1.157       .  T
C1109      N1111   1.157       .  T
C1110      N1112   1.157       .  T
C1115      C1116   1.411       .  A
C1115      C1120   1.412       .  A
C1116      C1117   1.410       .  A
C1116      C1121   1.449       .  S
C1117      C1118   1.412       .  A
C1117      C1124   1.450       .  S
C1118      C1119   1.412       .  A
C1119      C1120   1.407       .  A
C1119      C1122   1.450       .  S
C1120      C1123   1.452       .  S
C1121      N1128   1.157       .  T
C1122      N1127   1.157       .  T
C1123      N1125   1.157       .  T
C1124      N1126   1.157       .  T
C1129      C1130   1.411       .  A
C1129      C1134   1.413       .  A
C1130      C1131   1.412       .  A
C1130      C1135   1.451       .  S
C1131      C1132   1.417       .  A
C1131      C1138   1.450       .  S
C1132      C1133   1.415       .  A
C1133      C1134   1.408       .  A
C1133      C1136   1.451       .  S
C1134      C1137   1.450       .  S
C1135      N1142   1.157       .  T
C1136      N1141   1.157       .  T
C1137      N1139   1.156       .  T
C1138      N1140   1.157       .  T
C1143      C1144   1.411       .  A
C1143      C1148   1.415       .  A
C1144      C1145   1.409       .  A
C1144      C1149   1.449       .  S
C1145      C1146   1.410       .  A
C1145      C1152   1.450       .  S
C1146      C1147   1.409       .  A
C1147      C1148   1.408       .  A
C1147      C1150   1.451       .  S
C1148      C1151   1.451       .  S
C1149      N1156   1.157       .  T
C1150      N1155   1.157       .  T
C1151      N1153   1.157   1_556  T
C1152      N1154   1.157       .  T
C1157      C1158   1.413       .  A
C1157      C1162   1.411       .  A
C1158      C1159   1.408       .  A
C1158      C1163   1.451       .  S
C1159      C1160   1.414       .  A
C1159      C1166   1.453       .  S
C1160      C1161   1.414       .  A
C1161      C1162   1.411       .  A
C1161      C1164   1.450       .  S
C1162      C1165   1.450       .  S
C1163      N1170   1.157       .  T
C1164      N1169   1.157       .  T
C1165      N1167   1.157       .  T
C1166      N1168   1.157       .  T
C1171      C1172   1.411       .  A
C1171      C1176   1.412       .  A
C1172      C1173   1.407       .  A
C1172      C1177   1.451       .  S
C1173      C1174   1.414       .  A
C1173      C1180   1.452       .  S
C1174      C1175   1.412       .  A
C1175      C1176   1.413       .  A
C1175      C1178   1.449       .  S
C1176      C1179   1.450       .  S
C1177      N1184   1.157       .  T
C1178      N1183   1.157       .  T
C1179      N1181   1.157       .  T
C1180      N1182   1.157       .  T
C1185      C1186   1.411       .  A
C1185      C1190   1.413       .  A
C1186      C1187   1.409       .  A
C1186      C1191   1.451       .  S
C1187      C1188   1.413       .  A
C1187      C1194   1.449       .  S
C1188      C1189   1.415       .  A
C1189      C1190   1.411       .  A
C1189      C1192   1.451       .  S
C1190      C1193   1.450       .  S
C1191      N1198   1.157       .  T
C1192      N1197   1.157       .  T
C1193      N1195   1.157       .  T
C1194      N1196   1.157       .  T
C1199      C1200   1.412       .  A
C1199      C1204   1.412       .  A
C1200      C1201   1.414       .  A
C1200      C1205   1.449       .  S
C1201      C1202   1.412       .  A
C1201      C1208   1.449       .  S
C1202      C1203   1.410       .  A
C1203      C1204   1.409       .  A
C1203      C1206   1.451       .  S
C1204      C1207   1.450       .  S
C1205      N1212   1.157       .  T
C1206      N1211   1.157       .  T
C1207      N1209   1.157       .  T
C1208      N1210   1.157       .  T
C1213      C1214   1.411       .  A
C1213      C1218   1.410       .  A
C1214      C1215   1.408       .  A
C1214      C1219   1.452       .  S
C1215      C1216   1.415       .  A
C1215      C1222   1.451       .  S
C1216      C1217   1.416       .  A
C1217      C1218   1.412       .  A
C1217      C1220   1.450       .  S
C1218      C1221   1.450       .  S
C1219      N1226   1.157       .  T
C1220      N1225   1.157       .  T
C1221      N1223   1.157       .  T
C1222      N1224   1.157       .  T
C1227      C1228   1.415       .  A
C1227      C1232   1.415       .  A
C1228      C1229   1.412       .  A
C1228      C1233   1.450       .  S
C1229      C1230   1.411       .  A
C1229      C1236   1.451       .  S
C1230      C1231   1.412       .  A
C1231      C1232   1.410       .  A
C1231      C1234   1.450       .  S
C1232      C1235   1.452       .  S
C1233      N1240   1.157       .  T
C1234      N1239   1.157       .  T
C1235      N1237   1.157       .  T
C1236      N1238   1.157       .  T
C1241      C1242   1.412       .  A
C1241      C1246   1.413       .  A
C1242      C1243   1.411       .  A
C1242      C1247   1.451       .  S
C1243      C1244   1.414       .  A
C1243      C1250   1.451       .  S
C1244      C1245   1.414       .  A
C1245      C1246   1.409       .  A
C1245      C1248   1.452       .  S
C1246      C1249   1.450       .  S
C1247      N1254   1.157       .  T
C1248      N1253   1.157       .  T
C1249      N1251   1.157       .  T
C1250      N1252   1.157       .  T
C1255      C1256   1.410       .  A
C1255      C1260   1.411       .  A
C1256      C1257   1.411       .  A
C1256      C1261   1.451       .  S
C1257      C1258   1.414       .  A
C1257      C1264   1.450       .  S
C1258      C1259   1.415       .  A
C1259      C1260   1.409       .  A
C1259      C1262   1.452       .  S
C1260      C1263   1.450       .  S
C1261      N1268   1.157       .  T
C1262      N1267   1.157       .  T
C1263      N1265   1.157       .  T
C1264      N1266   1.157       .  T
C1269      C1270   1.411       .  A
C1269      C1274   1.412       .  A
C1270      C1271   1.411       .  A
C1270      C1275   1.450       .  S
C1271      C1272   1.413       .  A
C1271      C1278   1.450       .  S
C1272      C1273   1.413       .  A
C1273      C1274   1.406       .  A
C1273      C1276   1.451       .  S
C1274      C1277   1.452       .  S
C1275      N1282   1.157       .  T
C1276      N1281   1.157       .  T
C1277      N1279   1.157       .  T
C1278      N1280   1.157       .  T
C1283      C1284   1.412       .  A
C1283      C1288   1.416       .  A
C1284      C1285   1.410       .  A
C1284      C1289   1.450       .  S
C1285      C1286   1.411       .  A
C1285      C1292   1.450       .  S
C1286      C1287   1.413       .  A
C1287      C1288   1.410       .  A
C1287      C1290   1.451       .  S
C1288      C1291   1.452       .  S
C1289      N1296   1.157       .  T
C1290      N1295   1.157       .  T
C1291      N1293   1.157       .  T
C1292      N1294   1.157       .  T
C1297      C1298   1.412       .  A
C1297      C1302   1.413       .  A
C1298      C1299   1.410       .  A
C1298      C1303   1.450       .  S
C1299      C1300   1.412       .  A
C1299      C1306   1.450       .  S
C1300      C1301   1.412       .  A
C1301      C1302   1.414       .  A
C1301      C1304   1.449       .  S
C1302      C1305   1.450       .  S
C1303      N1310   1.157       .  T
C1304      N1309   1.157       .  T
C1305      N1307   1.157       .  T
C1306      N1308   1.157       .  T
C1311      C1312   1.411       .  A
C1311      C1316   1.411       .  A
C1312      C1313   1.408       .  A
C1312      C1317   1.452       .  S
C1313      C1314   1.414       .  A
C1313      C1320   1.450       .  S
C1314      C1315   1.418       .  A
C1315      C1316   1.413       .  A
C1315      C1318   1.451       .  S
C1316      C1319   1.451       .  S
C1317      N1324   1.157       .  T
C1318      N1323   1.157       .  T
C1319      N1321   1.157       .  T
C1320      N1322   1.157       .  T
C1325      C1326   1.415       .  A
C1325      C1330   1.416       .  A
C1326      C1327   1.413       .  A
C1326      C1331   1.450       .  S
C1327      C1328   1.411       .  A
C1327      C1334   1.451       .  S
C1328      C1329   1.409       .  A
C1329      C1330   1.409       .  A
C1329      C1332   1.451       .  S
C1330      C1333   1.451       .  S
C1331      N1338   1.157       .  T
C1332      N1337   1.157       .  T
C1333      N1335   1.157       .  T
C1334      N1336   1.157       .  T
