geometry optimzed in LAMMPS
_audit_creation_date              2020-12-01 
_audit_creation_method            'lammps2cif' 
_symmetry_space_group_name_H-M    'P1' 
_symmetry_Int_Tables_number       1 
_symmetry_cell_setting            triclinic 
loop_ 
_symmetry_equiv_pos_as_xyz 
  x,y,z 
_cell_length_a                    42.91737414 
_cell_length_b                    42.89792715787704 
_cell_length_c                    20.645387418519903 
_cell_angle_alpha                 88.60972584493062 
_cell_angle_beta                  88.58732458436396 
_cell_angle_gamma                 92.26925919826898 
loop_ 
_atom_site_label 
_atom_site_type_symbol 
_atom_site_fract_x 
_atom_site_fract_y 
_atom_site_fract_z 
_atom_site_charge 
O1          O  0.39314464  0.70322359  0.26321759    -0.72000
O2          O  0.39501627  0.61662977  0.05678302    -0.72200
O3          O  0.43823858  0.66326543  0.03934914    -0.72100
O4          O  0.35021757  0.65624478  0.28121744    -0.72100
O5          O  0.35382036  0.65150155  0.17696424    -0.72100
O6          O  0.44205226  0.64771725  0.19030388    -0.72100
O7          O  0.39346653  0.60646044  0.20439492    -0.72000
O8          O  0.40228981  0.69280030  0.16235230    -0.72200
V9          V  0.39426579  0.65972251  0.03328018     1.35200
V10         V  0.39789818  0.64980123  0.18527460     1.35200
C11         C  0.39790185  0.71279339  0.20522840     0.77200
C12         C  0.39311467  0.59678429  0.26267287     0.77300
C13         C  0.45525779  0.65569386  0.24189066     0.77100
C14         C  0.33694704  0.65360356  0.22766575     0.77100
O15         O  0.40134648  0.85239782  0.06511012    -0.72000
O16         O  0.39731737  0.93944216  0.02430895    -0.72200
O17         O  0.44322172  0.89977184  0.04183116    -0.72100
O18         O  0.35534675  0.89217099  0.04577348    -0.72100
O19         O  0.35420007  0.90737284  0.14519190    -0.72100
O20         O  0.44287634  0.90401787  0.14647442    -0.72100
O21         O  0.40248158  0.94877252  0.12641853    -0.72000
O22         O  0.39498441  0.86255640  0.16697621    -0.72200
V23         V  0.39928022  0.89605681  0.04604859     1.35200
V24         V  0.39859821  0.90549308  0.14447807     1.35200
C25         C  0.39824012  0.84270910  0.12348146     0.77200
C26         C  0.40015882  0.95895798  0.06903956     0.77300
C27         C  0.45806950  0.90270311  0.09337412     0.77100
C28         C  0.33960538  0.89963635  0.09507102     0.77100
O29         O  0.14312649  0.69206269  0.17568122    -0.72000
O30         O  0.14826937  0.60450857  0.14973362    -0.72200
O31         O  0.10185141  0.64430990  0.15345465    -0.72100
O32         O  0.18943682  0.65202379  0.17027963    -0.72100
O33         O  0.18453390  0.64073122  0.02293866    -0.72100
O34         O  0.09625839  0.63884522  0.00787572    -0.72100
O35         O  0.14021922  0.59637884  0.00288917    -0.72000
O36         O  0.13985320  0.68324627  0.02950518    -0.72200
V37         V  0.14558607  0.64814663  0.16422141     1.35200
V38         V  0.14039166  0.63997681  0.01381968     1.35200
C39         C  0.14053862  0.70250084  0.98231692     0.77200
C40         C  0.14403794  0.58545042  0.19727402     0.77300
C41         C  0.08410005  0.64009691  0.20276929     0.77100
C42         C  0.20205343  0.64685796  0.22387617     0.77100
O43         O  0.14560577  0.84104109  0.10067750    -0.72000
O44         O  0.14526570  0.92578732  0.15288187    -0.72200
O45         O  0.10186529  0.88128312  0.12886285    -0.72100
O46         O  0.18968868  0.88562284  0.12666609    -0.72100
O47         O  0.19080118  0.89919393  0.02457067    -0.72100
O48         O  0.10150767  0.89771466  0.02870814    -0.72100
O49         O  0.14727256  0.94065027  0.05159653    -0.72000
O50         O  0.14531119  0.85617531  0.99977664    -0.72200
V51         V  0.14566590  0.88365235  0.12515762     1.35200
V52         V  0.14618060  0.89815807  0.02801507     1.35200
C53         C  0.14543389  0.83410424  0.04136127     0.77200
C54         C  0.14682056  0.94771353  0.11066594     0.77300
C55         C  0.08653290  0.88898615  0.08012538     0.77100
C56         C  0.20529537  0.89324759  0.07587844     0.77100
O57         O  0.34566047  0.40184981  0.02738435    -0.72000
O58         O  0.43200860  0.40608207  0.23201138    -0.72200
O59         O  0.38886551  0.36033283  0.00511639    -0.72100
O60         O  0.38812977  0.44822134  0.00415618    -0.72100
O61         O  0.40098624  0.44857998  0.10509124    -0.72100
O62         O  0.39810781  0.35961381  0.10818900    -0.72100
O63         O  0.44288211  0.40449307  0.08423713    -0.72000
O64         O  0.35680577  0.40361471  0.12932972    -0.72200
V65         V  0.38895373  0.40423503  0.00666415     1.35200
V66         V  0.39958566  0.40409028  0.10477123     1.35200
C67         C  0.33660590  0.40177770  0.08606137     0.77200
C68         C  0.45217454  0.40548769  0.02566210     0.77300
C69         C  0.39272442  0.34497350  0.05691182     0.77100
C70         C  0.39404838  0.46352464  0.05422391     0.77100
O71         O  0.19467361  0.39677006  0.21259980    -0.72000
O72         O  0.10681804  0.38846367  0.24266171    -0.72200
O73         O  0.15302320  0.34869817  0.23048709    -0.72100
O74         O  0.14830912  0.43654920  0.22571921    -0.72100
O75         O  0.14526891  0.43657293  0.12089836    -0.72100
O76         O  0.14343474  0.34753097  0.12775506    -0.72100
O77         O  0.10051006  0.39165994  0.13878460    -0.72000
O78         O  0.18756409  0.39258781  0.10932092    -0.72200
V79         V  0.15063188  0.39262752  0.22592167     1.35200
V80         V  0.14423830  0.39205301  0.12614610     1.35200
C81         C  0.20598338  0.39546305  0.15560202     0.77200
C82         C  0.08870092  0.38937027  0.19536295     0.77300
C83         C  0.14887520  0.33307864  0.18022735     0.77100
C84         C  0.14655838  0.45163826  0.17274594     0.77100
O85         O  0.34600021  0.14561200  0.07623909    -0.72000
O86         O  0.43203059  0.15527101  0.11636114    -0.72200
O87         O  0.38563967  0.19466698  0.09461045    -0.72100
O88         O  0.39262826  0.10676419  0.09772157    -0.72100
O89         O  0.40169727  0.10826072  0.24352308    -0.72100
O90         O  0.40044569  0.19658398  0.24333086    -0.72100
O91         O  0.44410672  0.15459863  0.26360318    -0.72000
O92         O  0.35800310  0.15069347  0.22356619    -0.72200
V93         V  0.38923470  0.15065823  0.09429221     1.35200
V94         V  0.40083391  0.15244773  0.24546295     1.35200
C95         C  0.33730284  0.14749447  0.01822597     0.77200
C96         C  0.45279321  0.15598121  0.07173355     0.77300
C97         C  0.39254728  0.21076055  0.04372156     0.77100
C98         C  0.39838888  0.09261457  0.04614579     0.77100
O99         O  0.19759422  0.14256668  0.15109797    -0.72000
O100        O  0.11173298  0.14056635  0.10773796    -0.72200
O101        O  0.15484068  0.18524782  0.13735322    -0.72100
O102        O  0.15502005  0.09756654  0.12197690    -0.72100
O103        O  0.14031284  0.09131193  0.22282475    -0.72100
O104        O  0.14279546  0.18012628  0.23964740    -0.72100
O105        O  0.09880133  0.13661718  0.20998350    -0.72000
O106        O  0.18464952  0.13479819  0.25261223    -0.72200
V107        V  0.15448387  0.14132874  0.13158039     1.35200
V108        V  0.14189570  0.13578911  0.22941935     1.35200
C109        C  0.20580032  0.13885265  0.20906013     0.77200
C110        C  0.09061068  0.13885790  0.15164777     0.77300
C111        C  0.14907824  0.19789351  0.19076505     0.77100
C112        C  0.14753151  0.07932209  0.16929159     0.77100
O113        O  0.64026949  0.34564303  0.25241870    -0.72000
O114        O  0.64589857  0.43199736  0.04090916    -0.72200
O115        O  0.59929471  0.38992303  0.02646116    -0.72100
O116        O  0.68713546  0.38753735  0.26697528    -0.72100
O117        O  0.68717336  0.40109950  0.16512291    -0.72100
O118        O  0.59836835  0.40003898  0.17293146    -0.72100
O119        O  0.64414772  0.44365957  0.18831725    -0.72000
O120        O  0.64179964  0.35751628  0.14953810    -0.72200
V121        V  0.64314803  0.38899295  0.01959947     1.35200
V122        V  0.64280875  0.40036217  0.17091271     1.35200
C123        C  0.64077727  0.33687931  0.19437510     0.77200
C124        C  0.64571033  0.45255038  0.24612631     0.77300
C125        C  0.58389990  0.39546930  0.22665808     0.77100
C126        C  0.70226784  0.39375936  0.21465391     0.77100
O127        O  0.64815780  0.19735984  0.07426889    -0.72000
O128        O  0.64340409  0.11071983  0.03738273    -0.72200
O129        O  0.60175090  0.15527338  0.05698844    -0.72100
O130        O  0.68972966  0.15287616  0.05406233    -0.80100
O131        O  0.68891414  0.14329436  0.15783734    -0.72100
O132        O  0.59975314  0.14257402  0.15937033    -0.72100
O133        O  0.64315157  0.09965603  0.14054533    -0.72000
O134        O  0.64537371  0.18590456  0.17729924    -0.72200
V135        V  0.64569831  0.15383225  0.05772393     1.35200
V136        V  0.64436297  0.14301798  0.15681172     1.35200
C137        C  0.64722057  0.20637298  0.13218223     0.77200
C138        C  0.64283551  0.09041672  0.08291740     0.77300
C139        C  0.58561477  0.14968639  0.10831000     0.77100
C140        C  0.70440800  0.14789796  0.10520604     0.77100
O141        O  0.89668387  0.33699197  0.18886155    -0.72000
O142        O  0.89454614  0.42433461  0.14940841    -0.72200
O143        O  0.93958565  0.38356703  0.16578956    -0.72100
O144        O  0.85145400  0.37823910  0.17013835    -0.72100
O145        O  0.85064329  0.38911660  0.02229459    -0.72100
O146        O  0.93948420  0.39091861  0.01931298    -0.72100
O147        O  0.89608581  0.43337260  0.00213756    -0.72000
O148        O  0.89446746  0.34691915  0.04135340    -0.72200
V149        V  0.89552813  0.38082824  0.17053723     1.35200
V150        V  0.89513788  0.38989465  0.01928009     1.35200
C151        C  0.89554933  0.32717143  0.99726689     0.77200
C152        C  0.89562949  0.44369501  0.19471767     0.77300
C153        C  0.95459623  0.38823009  0.21658108     0.77100
C154        C  0.83604292  0.38359549  0.22117948     0.77100
O155        O  0.89852788  0.18749071  0.12412402    -0.72000
O156        O  0.89584266  0.10168081  0.17409470    -0.72200
O157        O  0.94123649  0.14549934  0.15229191    -0.72100
O158        O  0.85319580  0.14429882  0.14585011    -0.72100
O159        O  0.85550556  0.13425680  0.04351774    -0.72100
O160        O  0.94430528  0.13072081  0.05271009    -0.72100
O161        O  0.89584536  0.08972992  0.07248857    -0.72000
O162        O  0.90429363  0.17545900  0.02319371    -0.72200
V163        V  0.89728901  0.14446455  0.14711085     1.35200
V164        V  0.89991591  0.13272878  0.04982302     1.35200
C165        C  0.90224806  0.19613441  0.06542979     0.77200
C166        C  0.89490468  0.08106748  0.13144756     0.77300
C167        C  0.95791069  0.13800459  0.10425700     0.77100
C168        C  0.83916178  0.13987955  0.09356002     0.77100
O169        O  0.69511433  0.64558581  0.00629449    -0.72000
O170        O  0.60797371  0.64632803  0.22417915    -0.72200
O171        O  0.65298153  0.69025055  0.99183728    -0.72100
O172        O  0.64986034  0.60229992  0.98749611    -0.72100
O173        O  0.63818224  0.59922786  0.09029471    -0.72100
O174        O  0.64548213  0.68827749  0.09625875    -0.72100
O175        O  0.59855606  0.64662406  0.07815910    -0.72000
O176        O  0.68473271  0.64155867  0.10974739    -0.72200
V177        V  0.65133918  0.64615227  0.99205017     1.35200
V178        V  0.64186840  0.64389241  0.09165782     1.35200
C179        C  0.70463017  0.64284508  0.06367074     0.77200
C180        C  0.58845386  0.64715147  0.02129437     0.77300
C181        C  0.64993495  0.70433835  0.04437857     0.77100
C182        C  0.64329750  0.58558620  0.03748703     0.77100
O183        O  0.84400282  0.63453954  0.18484940    -0.72000
O184        O  0.93114246  0.63837224  0.21730249    -0.72200
O185        O  0.88721302  0.68007693  0.19917680    -0.72100
O186        O  0.88801221  0.59221813  0.20462583    -0.72100
O187        O  0.89475860  0.59166727  0.10003895    -0.72100
O188        O  0.90056573  0.68084696  0.09713136    -0.72100
O189        O  0.94081459  0.63470331  0.11417848    -0.72000
O190        O  0.85453456  0.63738738  0.08136452    -0.72200
V191        V  0.88773449  0.63619674  0.19948854     1.35200
V192        V  0.89746265  0.63619162  0.10005103     1.35200
C193        C  0.83454948  0.63639256  0.12731284     0.77200
C194        C  0.95081372  0.63687658  0.17089647     0.77300
C195        C  0.89426381  0.69563773  0.14795252     0.77100
C196        C  0.89144145  0.57689946  0.15373551     0.77100
O197        O  0.69779172  0.89987224  0.07222719    -0.72000
O198        O  0.61037500  0.89512360  0.10892666    -0.72200
O199        O  0.65470861  0.85356535  0.08819905    -0.72100
O200        O  0.65355118  0.94159286  0.09409313    -0.72100
O201        O  0.64886088  0.94455961  0.23969778    -0.72100
O202        O  0.64227876  0.85550495  0.23687709    -0.72100
O203        O  0.60226971  0.90179483  0.00627954    -0.72000
O204        O  0.68886122  0.89882068  0.21912782    -0.72200
V205        V  0.65399720  0.89762561  0.08891245     1.35200
V206        V  0.64573687  0.90002384  0.23984455     1.35200
C207        C  0.70812453  0.89960228  0.01431081     0.77200
C208        C  0.59145086  0.89865273  0.06356515     0.77300
C209        C  0.64819356  0.83936012  0.03712585     0.77100
C210        C  0.65101589  0.95815672  0.04323557     0.77100
O211        O  0.84787321  0.88917194  0.14439893    -0.72000
O212        O  0.93367721  0.89114289  0.09415746    -0.72200
O213        O  0.88982705  0.84601281  0.11672899    -0.72100
O214        O  0.89153040  0.93375438  0.12093978    -0.72100
O215        O  0.90545909  0.93260910  0.22128620    -0.72100
O216        O  0.90003860  0.84357950  0.21925442    -0.72100
O217        O  0.94563390  0.88730950  0.19552814    -0.72000
O218        O  0.86010666  0.88871635  0.24575672    -0.72200
V219        V  0.89095485  0.88995719  0.12111393     1.35200
V220        V  0.90266615  0.88808418  0.21857333     1.35200
C221        C  0.83935649  0.88910338  0.20350695     0.77200
C222        C  0.95424434  0.88870178  0.13651942     0.77300
C223        C  0.89445228  0.82978850  0.16702155     0.77100
C224        C  0.89830951  0.94826153  0.17143854     0.77100
C225        C  0.78904793  0.91318331  0.18683210    -0.20500
C226        C  0.80601205  0.89142079  0.22175066    -0.07100
C227        C  0.79055539  0.87300964  0.02196694     0.13800
C228        C  0.75881979  0.87706674  0.03536442    -0.20600
C229        C  0.74192309  0.89858271  0.24974858    -0.07100
C230        C  0.75735884  0.91727475  0.20040531     0.13700
C231        C  0.74193260  0.94271944  0.16287126    -0.23900
H232        H  0.80079296  0.92757284  0.14900299     0.15000
H233        H  0.74693313  0.86257837  0.07283411     0.15100
C234        C  0.80570237  0.84751817  0.05969295    -0.23900
H235        H  0.74389028  0.93838668  0.11024689     0.05300
H236        H  0.75401797  0.96548880  0.17209044     0.08500
H237        H  0.71702964  0.94478168  0.17602616     0.08500
H238        H  0.83086636  0.84621913  0.04874665     0.08500
H239        H  0.79420365  0.82468987  0.04866154     0.08500
H240        H  0.80256192  0.85118964  0.11236620     0.05300
C241        C  0.91367802  0.78247743  0.11670402    -0.20500
C242        C  0.89418435  0.79556633  0.16322767    -0.07100
C243        C  0.87408137  0.77595640  0.20244593     0.13800
C244        C  0.87440988  0.74360893  0.19520613    -0.20600
C245        C  0.89426587  0.73021797  0.14935926    -0.07100
C246        C  0.91422032  0.75005275  0.10965802     0.13700
C247        C  0.93744449  0.73738059  0.06275738    -0.23900
H248        H  0.92896362  0.79776903  0.08644974     0.15000
H249        H  0.85889656  0.72865144  0.22562386     0.15100
C250        C  0.85123304  0.78907671  0.24970404    -0.23900
H251        H  0.95171903  0.75621055  0.03700482     0.05300
H252        H  0.92528770  0.72357374  0.02564956     0.08500
H253        H  0.95340335  0.72258632  0.09018345     0.08500
H254        H  0.83540594  0.80432431  0.22291301     0.08500
H255        H  0.86389019  0.80272789  0.28628692     0.08500
H256        H  0.83679588  0.77047488  0.27577904     0.05300
C257        C  0.63024782  0.75362702  0.00096087    -0.20500
C258        C  0.65014657  0.73876280  0.04358442    -0.07100
C259        C  0.66999960  0.75694056  0.08243068     0.13800
C260        C  0.66869408  0.78961536  0.07914566    -0.20600
C261        C  0.64847350  0.80467707  0.03696552    -0.07100
C262        C  0.62891311  0.78625602  0.99753289     0.13700
C263        C  0.60531775  0.80050507  0.95451925    -0.23900
H264        H  0.61516992  0.73949435  0.97097596     0.15000
H265        H  0.68396293  0.80352430  0.10911766     0.15100
C266        C  0.69364118  0.74210380  0.12477477    -0.23900
H267        H  0.59107942  0.78254368  0.92939446     0.05300
H268        H  0.61681339  0.81575163  0.16695669     0.08500
H269        H  0.58931632  0.81413870  0.98467061     0.08500
H270        H  0.70960742  0.72836965  0.09461169     0.08500
H271        H  0.68172092  0.72646996  0.16164780     0.08500
H272        H  0.70789112  0.75980622  0.15059646     0.05300
C273        C  0.78867081  0.61806185  0.06610031    -0.20500
C274        C  0.80105595  0.63778632  0.11316196    -0.07100
C275        C  0.78181868  0.65971642  0.14248717     0.13800
C276        C  0.75050692  0.66100098  0.12473116    -0.20600
C277        C  0.73811448  0.64127169  0.07771725    -0.07100
C278        C  0.75733098  0.61934524  0.04838650     0.13700
C279        C  0.74458879  0.59633491  0.25092112    -0.23900
H280        H  0.80356747  0.60138051  0.04352148     0.15000
H281        H  0.73560970  0.67767091  0.14734206     0.15100
C282        C  0.79452911  0.68275171  0.19015266    -0.23900
H283        H  0.76265574  0.58035180  0.23399592     0.05300
H284        H  0.73583904  0.60877422  0.20782179     0.08500
H285        H  0.72516688  0.58199481  0.27436403     0.08500
H286        H  0.81402527  0.69707602  0.16692688     0.08500
H287        H  0.80314342  0.67032425  0.23339214     0.08500
H288        H  0.77644945  0.69876026  0.20691232     0.05300
C289        C  0.87379170  0.99493062  0.12963042    -0.20500
C290        C  0.89611124  0.98256692  0.17042565    -0.07100
C291        C  0.91596527  0.00311109  0.20465635     0.13800
C292        C  0.91413491  0.03554395  0.19367227    -0.20600
C293        C  0.89314638  0.04753195  0.14912734    -0.07100
C294        C  0.87199718  0.02697675  0.11873114     0.13700
C295        C  0.84667850  0.03868087  0.07650495    -0.23900
H296        H  0.85776397  0.97928134  0.10513881     0.15000
H297        H  0.93004239  0.05149669  0.21764737     0.15100
C298        C  0.93998420  0.99111419  0.24992322    -0.23900
H299        H  0.83111594  0.01938849  0.05963213     0.05300
H300        H  0.85686684  0.05112145  0.03279092     0.08500
H301        H  0.83224013  0.05451228  0.10522160     0.08500
H302        H  0.95613403  0.97605891  0.22331031     0.08500
H303        H  0.92942315  0.97744504  0.03983880     0.08500
H304        H  0.95402326  0.01047017  0.27107639     0.05300
C305        C  0.91357438  0.53074683  0.20461610    -0.20500
C306        C  0.89325466  0.54269844  0.15899374    -0.07100
C307        C  0.87426581  0.52201878  0.12350254     0.13800
C308        C  0.87608820  0.48966746  0.13480184    -0.20600
C309        C  0.89604186  0.47773036  0.18153340    -0.07100
C310        C  0.91524937  0.49860980  0.21655213     0.13700
C311        C  0.93806931  0.48741739  0.26572512    -0.23900
H312        H  0.92804575  0.54682464  0.23173056     0.15000
H313        H  0.86124416  0.47364938  0.10841287     0.15100
C314        C  0.85092689  0.53400289  0.07665707    -0.23900
H315        H  0.95197004  0.50707473  0.28611065     0.05300
H316        H  0.95452423  0.47147919  0.24299553     0.08500
H317        H  0.92586357  0.47508331  0.05641918     0.08500
H318        H  0.86304126  0.54820208  0.03751585     0.08500
H319        H  0.83414869  0.54868564  0.10251059     0.08500
H320        H  0.83756255  0.51464720  0.05389000     0.05300
C321        C  0.91854426  0.27558683  0.23226363    -0.20500
C322        C  0.89640458  0.29347823  0.01428551    -0.07100
C323        C  0.87694897  0.27898207  0.06386711     0.13800
C324        C  0.87990214  0.24734766  0.07903397    -0.20600
C325        C  0.90189974  0.22959115  0.04723236    -0.07100
C326        C  0.92222044  0.24407510  0.99961885     0.13700
C327        C  0.94904404  0.22712183  0.22027222    -0.23900
H328        H  0.93402034  0.28681249  0.19568099     0.15000
H329        H  0.86444643  0.23627680  0.11594247     0.15100
C330        C  0.85191956  0.29516190  0.10094592    -0.23900
H331        H  0.96317579  0.24231088  0.18544579     0.05300
H332        H  0.94058086  0.20648234  0.19400843     0.08500
H333        H  0.96451456  0.21938670  0.25937078     0.08500
H334        H  0.82887938  0.28373955  0.09139093     0.08500
H335        H  0.85081388  0.32012298  0.08836439     0.08500
H336        H  0.85594584  0.29295511  0.15366876     0.05300
C337        C  0.66356583  0.04634184  0.02129122    -0.20500
C338        C  0.64297420  0.05667747  0.06944142    -0.07100
C339        C  0.62411909  0.03448587  0.10582609     0.13800
C340        C  0.62720229  0.00265021  0.09504370    -0.20600
C341        C  0.64839464  0.99224231  0.04843657    -0.07100
C342        C  0.66668483  0.01431674  0.01068249     0.13700
C343        C  0.69088492  0.00424098  0.96254005    -0.23900
H344        H  0.67810571  0.06335223  0.99356941     0.15000
H345        H  0.61286874  0.98563243  0.12325811     0.15100
C346        C  0.59951071  0.04414182  0.15361337    -0.23900
H347        H  0.70343580  0.02451261  0.93785462     0.05300
H348        H  0.67988993  0.98990762  0.17519191     0.08500
H349        H  0.70824512  0.99036559  0.98827583     0.08500
H350        H  0.58299469  0.05884945  0.12764526     0.08500
H351        H  0.61010195  0.05725098  0.19363687     0.08500
H352        H  0.58606335  0.02373130  0.17563849     0.05300
C353        C  0.79067259  0.16257305  0.13646019    -0.20500
C354        C  0.80456043  0.14231481  0.09251090    -0.07100
C355        C  0.78501145  0.12478339  0.05124991     0.13800
C356        C  0.75247147  0.12724056  0.05670862    -0.20600
C357        C  0.73881393  0.14666361  0.10215160    -0.07100
C358        C  0.75817516  0.16521671  0.14123513     0.13700
C359        C  0.74477089  0.18887099  0.18569816    -0.23900
H360        H  0.80540390  0.17664927  0.16719875     0.15000
H361        H  0.73745346  0.11354359  0.02580020     0.15100
C362        C  0.79781591  0.10236106  0.25353796    -0.23900
H363        H  0.76327200  0.20209017  0.21141736     0.05300
H364        H  0.72909689  0.17705610  0.22264180     0.08500
H365        H  0.73134556  0.20578845  0.15722040     0.08500
H366        H  0.81095187  0.08445954  0.27895046     0.08500
H367        H  0.81349030  0.11503788  0.21798982     0.08500
H368        H  0.77908368  0.09028077  0.22631538     0.05300
C369        C  0.66503274  0.53961895  0.98706739    -0.20500
C370        C  0.64361549  0.55106825  0.03236539    -0.07100
C371        C  0.62356898  0.52941960  0.06808801     0.13800
C372        C  0.62573184  0.49726327  0.05718113    -0.20600
C373        C  0.64658590  0.48621573  0.26046512    -0.07100
C374        C  0.66683262  0.50771448  0.97582418     0.13700
C375        C  0.69195075  0.49699742  0.18039552    -0.23900
H376        H  0.68078142  0.55585053  0.96015693     0.15000
H377        H  0.61006207  0.48074461  0.08357246     0.15100
C378        C  0.59841087  0.53886263  0.11495054    -0.23900
H379        H  0.70639312  0.51693529  0.90890504     0.05300
H380        H  0.68146725  0.48456505  0.13928932     0.08500
H381        H  0.70710811  0.48158592  0.95710585     0.08500
H382        H  0.59596741  0.56427784  0.11676449     0.08500
H383        H  0.60329491  0.52982614  0.16435155     0.08500
H384        H  0.57554681  0.52871798  0.10010317     0.05300
C385        C  0.74931491  0.37061613  0.00774348    -0.20500
C386        C  0.73663672  0.39116569  0.21261625    -0.07100
C387        C  0.75694173  0.40832499  0.16845752     0.13800
C388        C  0.78927920  0.40505754  0.17241845    -0.20600
C389        C  0.80182263  0.38522270  0.21913982    -0.07100
C390        C  0.78150729  0.36734276  0.01130840     0.13700
C391        C  0.79351288  0.34349801  0.05765060    -0.23900
H392        H  0.73391773  0.35677029  0.04056267     0.15000
H393        H  0.80499125  0.41842885  0.13939219     0.15100
C394        C  0.74517197  0.43085907  0.11859560    -0.23900
H395        H  0.77443549  0.33124089  0.08675920     0.05300
H396        H  0.80958584  0.35490073  0.09168196     0.08500
H397        H  0.80578385  0.32587747  0.02930531     0.08500
H398        H  0.73241901  0.44927845  0.14290222     0.08500
H399        H  0.72939152  0.41859347  0.08533421     0.08500
H400        H  0.76448110  0.44230578  0.08880094     0.05300
C401        C  0.66286761  0.29455990  0.13041249    -0.20500
C402        C  0.64169169  0.30341892  0.17887593    -0.07100
C403        C  0.62259862  0.28025320  0.21182056     0.13800
C404        C  0.62550460  0.24882328  0.19593293    -0.20600
C405        C  0.64673554  0.23990137  0.14750191    -0.07100
C406        C  0.66601421  0.26313755  0.11483704     0.13700
C407        C  0.69119233  0.25589814  0.06578869    -0.23900
H408        H  0.67777257  0.31229707  0.10558233     0.15000
H409        H  0.61058365  0.23108155  0.22065240     0.15100
C410        C  0.59814065  0.28858788  0.26146272    -0.23900
H411        H  0.68585623  0.26652335  0.01799487     0.05300
H412        H  0.69428297  0.23065146  0.05986340     0.08500
H413        H  0.71390408  0.26602007  0.08155358     0.08500
H414        H  0.58178107  0.30492975  0.23927102     0.08500
H415        H  0.60919844  0.29972472  0.30342393     0.08500
H416        H  0.58436779  0.26765490  0.28012550     0.05300
C417        C  0.04454107  0.11946864  0.08982865    -0.20500
C418        C  0.05708549  0.13981962  0.13569583    -0.07100
C419        C  0.03724843  0.16067423  0.16653718     0.13800
C420        C  0.00542663  0.15977650  0.15358324    -0.20600
C421        C  0.99241932  0.13872316  0.10990284    -0.07100
C422        C  0.01236135  0.11853299  0.07667111     0.13700
C423        C  0.99982431  0.09508163  0.02978880    -0.23900
H424        H  0.05981695  0.10366491  0.06559798     0.15000
H425        H  0.99049071  0.17573251  0.17821098     0.15100
C426        C  0.04970946  0.18509011  0.21088570    -0.23900
H427        H  0.01870911  0.08099122  0.25938298     0.05300
H428        H  0.98898548  0.10722220  0.98859876     0.08500
H429        H  0.98213415  0.07913478  0.05479494     0.08500
H430        H  0.06740898  0.20001641  0.18337581     0.08500
H431        H  0.06018826  0.17392010  0.25366707     0.08500
H432        H  0.03126796  0.20044078  0.97891984     0.05300
C433        C  0.49724676  0.13737070  0.13568187    -0.20500
C434        C  0.48645405  0.15723486  0.08673996    -0.07100
C435        C  0.50823385  0.17677853  0.05104159     0.13800
C436        C  0.54012845  0.17419278  0.06122710    -0.20600
C437        C  0.55123926  0.15281429  0.10682882    -0.07100
C438        C  0.52939163  0.13488365  0.14629564     0.13700
C439        C  0.53954862  0.11210687  0.19734305    -0.23900
H440        H  0.48050083  0.12290486  0.16419647     0.15000
H441        H  0.55664542  0.18897857  0.03274004     0.15100
C442        C  0.49819656  0.20164171  0.25467547    -0.23900
H443        H  0.51934253  0.10004204  0.22326704     0.05300
H444        H  0.55368530  0.12435301  0.23367031     0.08500
H445        H  0.55367867  0.09423226  0.17451857     0.08500
H446        H  0.48417964  0.21800990  0.28276597     0.08500
H447        H  0.48445839  0.19152866  0.21501339     0.08500
H448        H  0.51836430  0.21520039  0.23195824     0.05300
C449        C  0.28466617  0.12150957  0.03101176    -0.20500
C450        C  0.30370777  0.14575507  0.25280459    -0.07100
C451        C  0.29033499  0.16790440  0.21108167     0.13800
C452        C  0.25848200  0.16467057  0.19707914    -0.20600
C453        C  0.23937754  0.14038384  0.22509194    -0.07100
C454        C  0.25276654  0.11836679  0.01721892     0.13700
C455        C  0.23391641  0.09075034  0.04524052    -0.23900
H456        H  0.29496537  0.10456779  0.06297338     0.15000
H457        H  0.24822253  0.18166973  0.16518579     0.15100
C458        C  0.30909371  0.19592513  0.18405448    -0.23900
H459        H  0.24839198  0.07492627  0.07410401     0.05300
H460        H  0.22347201  0.07717404  0.00550222     0.08500
H461        H  0.21518203  0.09880806  0.07771159     0.08500
H462        H  0.32827583  0.18846755  0.15199990     0.08500
H463        H  0.31905713  0.20946216  0.22436063     0.08500
H464        H  0.29459065  0.21167889  0.15508906     0.05300
C465        C  0.03814663  0.40960925  0.16520046    -0.20500
C466        C  0.05450921  0.38919751  0.20464194    -0.07100
C467        C  0.03785333  0.36876140  0.24908055     0.13800
C468        C  0.00521264  0.37000701  0.25415593    -0.20600
C469        C  0.98892464  0.39008229  0.21376571    -0.07100
C470        C  0.00559428  0.41023676  0.16887643     0.13700
C471        C  0.98939776  0.43290067  0.12548036    -0.23900
H472        H  0.05098782  0.42514807  0.13097014     0.15000
H473        H  0.99206762  0.35445717  0.03767330     0.15100
C474        C  0.05379393  0.34423342  0.03764777    -0.23900
H475        H  0.00622590  0.44745459  0.09484521     0.05300
H476        H  0.97543397  0.44870565  0.15494517     0.08500
H477        H  0.97384003  0.42014914  0.09264846     0.08500
H478        H  0.07056717  0.35513020  0.07078438     0.08500
H479        H  0.06647048  0.32876684  0.25391680     0.08500
H480        H  0.03692025  0.32936298  0.06751827     0.05300
C481        C  0.16947120  0.24947249  0.14783669    -0.20500
C482        C  0.15015202  0.23268555  0.19373945    -0.07100
C483        C  0.13166320  0.24965886  0.23742437     0.13800
C484        C  0.13189855  0.28238433  0.23170720    -0.20600
C485        C  0.15005531  0.29872252  0.18380967    -0.07100
C486        C  0.16989997  0.28216920  0.14282969     0.13700
C487        C  0.19270886  0.29892560  0.09616888    -0.23900
H488        H  0.18439054  0.23688323  0.11534564     0.15000
H489        H  0.11745379  0.29538602  0.26440262     0.15100
C490        C  0.11099862  0.23392099  0.28917747    -0.23900
H491        H  0.20696087  0.28242104  0.06869386     0.05300
H492        H  0.20874506  0.31437335  0.12347068     0.08500
H493        H  0.18015982  0.31313621  0.06072596     0.08500
H494        H  0.12504620  0.22004015  0.32190987     0.08500
H495        H  0.09358994  0.21832640  0.26727953     0.08500
H496        H  0.09840680  0.25090545  0.31883786     0.05300
C497        C  0.53975822  0.42012743  0.02817583    -0.20500
C498        C  0.55003035  0.39862757  0.23331693    -0.07100
C499        C  0.52796531  0.38036972  0.19946709     0.13800
C500        C  0.49601212  0.38397333  0.21245640    -0.20600
C501        C  0.48579554  0.40488746  0.00901384    -0.07100
C502        C  0.50800188  0.42370353  0.04111732     0.13700
C503        C  0.49844468  0.44876529  0.08639022    -0.23900
H504        H  0.55684946  0.43432329  0.05333321     0.15000
H505        H  0.47899122  0.36948281  0.18782767     0.15100
C506        C  0.53712903  0.35580683  0.15240874    -0.23900
H507        H  0.51890784  0.46203017  0.10522083     0.05300
H508        H  0.48489982  0.43861523  0.12871457     0.08500
H509        H  0.48422125  0.46537173  0.05920200     0.08500
H510        H  0.52729863  0.33268643  0.16983086     0.08500
H511        H  0.56270005  0.35393694  0.14653230     0.08500
H512        H  0.52754153  0.36118879  0.10417582     0.05300
C513        C  0.37206029  0.25907212  0.08983370    -0.20500
C514        C  0.39158263  0.24530878  0.04378860    -0.07100
C515        C  0.41047135  0.26488693  0.00115558     0.13800
C516        C  0.41046152  0.29724201  0.00812165    -0.20600
C517        C  0.39187154  0.31075654  0.05556968    -0.07100
C518        C  0.37173176  0.29154872  0.09600109     0.13700
C519        C  0.34863344  0.30426046  0.14385453    -0.23900
H520        H  0.35694113  0.24436455  0.12157899     0.15000
H521        H  0.42516237  0.31226869  0.97609330     0.15100
C522        C  0.43129162  0.25230964  0.94898819    -0.23900
H523        H  0.35302867  0.29500074  0.19324984     0.05300
H524        H  0.32464315  0.29657333  0.13076037     0.08500
H525        H  0.34944665  0.33005572  0.14514487     0.08500
H526        H  0.41764528  0.23868766  0.16467527     0.08500
H527        H  0.44834651  0.23705919  0.97087414     0.08500
H528        H  0.44435672  0.27115904  0.92070216     0.05300
C529        C  0.29212264  0.41909209  0.15224159    -0.20500
C530        C  0.30325861  0.39954355  0.10403849    -0.07100
C531        C  0.28262020  0.37778352  0.07534146     0.13800
C532        C  0.25110235  0.37678260  0.09440917    -0.20600
C533        C  0.23979913  0.39659364  0.14193938    -0.07100
C534        C  0.26051511  0.41801074  0.17145586     0.13700
C535        C  0.24930520  0.44071035  0.22068896    -0.23900
H536        H  0.30818630  0.43561178  0.17422681     0.15000
H537        H  0.23506701  0.36053095  0.07163948     0.15100
C538        C  0.29372410  0.35481607  0.27654784    -0.23900
H539        H  0.26860542  0.45641880  0.23697848     0.05300
H540        H  0.23918199  0.42797821  0.26401087     0.08500
H541        H  0.23127909  0.45537693  0.19935248     0.08500
H542        H  0.31208020  0.34053042  0.29777540     0.08500
H543        H  0.30332813  0.36724156  0.23240322     0.08500
H544        H  0.27448119  0.33872718  0.26141136     0.05300
C545        C  0.12797396  0.99122273  0.17778465    -0.20500
C546        C  0.14838126  0.98090704  0.12921124    -0.07100
C547        C  0.16969391  0.00264411  0.09796177     0.13800
C548        C  0.16906952  0.03416580  0.11381991    -0.20600
C549        C  0.14801325  0.04495303  0.16052183    -0.07100
C550        C  0.12740439  0.02302071  0.19373376     0.13700
C551        C  0.10382602  0.03300829  0.24354874    -0.23900
H552        H  0.11179418  0.97445758  0.20200286     0.15000
H553        H  0.18504898  0.05064545  0.08871321     0.15100
C554        C  0.19387370  0.99274983  0.04906547    -0.23900
H555        H  0.08906828  0.01292312  0.26313089     0.05300
H556        H  0.08827894  0.05014145  0.22133491     0.08500
H557        H  0.11586160  0.04376151  0.28483296     0.08500
H558        H  0.18250690  0.98345497  0.00556898     0.08500
H559        H  0.20828171  0.97455517  0.07110271     0.08500
H560        H  0.20976475  0.01258544  0.03253473     0.05300
C561        C  0.03848579  0.86571068  0.13168752    -0.20500
C562        C  0.05198834  0.88732301  0.08591751    -0.07100
C563        C  0.03258034  0.90806502  0.05302590     0.13800
C564        C  0.00046359  0.90746926  0.06913416    -0.20600
C565        C  0.98755881  0.88705724  0.11785333    -0.07100
C566        C  0.00669259  0.86532122  0.14821126     0.13700
C567        C  0.99373299  0.84110745  0.19706433    -0.23900
H568        H  0.05313787  0.84933328  0.15606772     0.15000
H569        H  0.98553954  0.92374153  0.04522280     0.15100
C570        C  0.04562661  0.93177285  0.00350327    -0.23900
H571        H  0.97447480  0.82713849  0.92609781     0.05300
H572        H  0.01177237  0.82484256  0.21265060     0.08500
H573        H  0.98488770  0.85247042  0.24111953     0.08500
H574        H  0.05661895  0.91977694  0.96235582     0.08500
H575        H  0.02715683  0.94643579  0.98370451     0.08500
H576        H  0.06316640  0.94738881  0.27608327     0.05300
C577        C  0.16308713  0.53871271  0.14132588    -0.20500
C578        C  0.14338261  0.55121769  0.18865763    -0.07100
C579        C  0.12354899  0.53071543  0.22744288     0.13800
C580        C  0.12470148  0.49849015  0.21916414    -0.20600
C581        C  0.14495243  0.48596400  0.17332755    -0.07100
C582        C  0.16426650  0.50626484  0.13344019     0.13700
C583        C  0.18721170  0.49385677  0.08508014    -0.23900
H584        H  0.17817750  0.55436467  0.11149174     0.15000
H585        H  0.10987519  0.48277167  0.24946573     0.15100
C586        C  0.10069596  0.54231665  0.02729649    -0.23900
H587        H  0.20081065  0.51297501  0.05872488     0.05300
H588        H  0.17474033  0.47987952  0.04880409     0.08500
H589        H  0.20382256  0.47887888  0.11027927     0.08500
H590        H  0.08483477  0.55871179  0.00405770     0.08500
H591        H  0.11310061  0.55429487  0.06651774     0.08500
H592        H  0.08612024  0.52295043  0.05039805     0.05300
C593        C  0.03189155  0.65866630  0.22990336    -0.20500
C594        C  0.04998993  0.63767226  0.19626345    -0.07100
C595        C  0.03532695  0.61579300  0.15559410     0.13800
C596        C  0.00286686  0.61596526  0.14869973    -0.20600
C597        C  0.98475268  0.63730268  0.18175668    -0.07100
C598        C  0.99958264  0.65929176  0.22181242     0.13700
C599        C  0.98197701  0.68496477  0.00209559    -0.23900
H600        H  0.04334220  0.67560897  0.01053988     0.15000
H601        H  0.99149764  0.59920176  0.11766485     0.15100
C602        C  0.05350363  0.59147340  0.12141328    -0.23900
H603        H  0.99755006  0.70109227  0.02899890     0.05300
H604        H  0.96402728  0.67490454  0.03661515     0.08500
H605        H  0.97059846  0.69875304  0.96377384     0.08500
H606        H  0.06525831  0.57673498  0.15732713     0.08500
H607        H  0.07133275  0.60267943  0.08818859     0.08500
H608        H  0.03822677  0.57600471  0.09237489     0.05300
C609        C  0.12170267  0.78073188  0.05423756    -0.20500
C610        C  0.14389931  0.80085835  0.02199342    -0.07100
C611        C  0.16371205  0.78841216  0.97365141     0.13800
C612        C  0.16122480  0.75647249  0.96050230    -0.20600
C613        C  0.13959198  0.73640289  0.99387565    -0.07100
C614        C  0.11886106  0.74887387  0.03996064     0.13700
C615        C  0.09253477  0.72920577  0.07141802    -0.23900
H616        H  0.10607457  0.79015357  0.09020456     0.15000
H617        H  0.17698177  0.74696629  0.17506745     0.15100
C618        C  0.18907398  0.80707956  0.93721308    -0.23900
H619        H  0.07772193  0.74308354  0.10380127     0.05300
H620        H  0.10156694  0.70990406  0.10098403     0.08500
H621        H  0.07756006  0.71938755  0.03328065     0.08500
H622        H  0.21205360  0.79819655  0.95052736     0.08500
H623        H  0.18861975  0.83217392  0.19710918     0.08500
H624        H  0.18660723  0.80410401  0.13446752     0.05300
C625        C  0.42281136  0.01126057  0.09027357    -0.20500
C626        C  0.40115590  0.99298060  0.05638334    -0.07100
C627        C  0.37944093  0.00776483  0.01681687     0.13800
C628        C  0.38011686  0.04047186  0.01165858    -0.20600
C629        C  0.40100376  0.05857898  0.04749279    -0.07100
C630        C  0.42295858  0.04390079  0.08645803     0.13700
C631        C  0.44690395  0.06256410  0.12307428    -0.23900
H632        H  0.43940590  0.99989045  0.12077629     0.15000
H633        H  0.36309872  0.05199345  0.23222954     0.15100
C634        C  0.35385354  0.98939500  0.23459877    -0.23900
H635        H  0.46283402  0.04729448  0.14965158     0.05300
H636        H  0.43522272  0.07719018  0.15907923     0.08500
H637        H  0.46120073  0.07777897  0.08860899     0.08500
H638        H  0.33979481  0.97550435  0.27173324     0.08500
H639        H  0.36403176  0.97355228  0.19915885     0.08500
H640        H  0.33795927  0.00480356  0.20828440     0.05300
C641        C  0.50822548  0.88220161  0.12735725    -0.20500
C642        C  0.49233196  0.90403514  0.09061738    -0.07100
C643        C  0.50918482  0.92495856  0.04760772     0.13800
C644        C  0.54158100  0.92286139  0.04096191    -0.20600
C645        C  0.55752781  0.90037227  0.07610496    -0.07100
C646        C  0.54062231  0.87972981  0.11970726     0.13700
C647        C  0.55611456  0.85364400  0.15446342    -0.23900
H648        H  0.49502088  0.86599202  0.15957978     0.15000
H649        H  0.55464216  0.93872068  0.25778406     0.15100
C650        C  0.49331586  0.95001937  0.25987052    -0.23900
H651        H  0.53917978  0.83888097  0.18441283     0.05300
H652        H  0.57390216  0.86325566  0.18709088     0.08500
H653        H  0.56734633  0.83857751  0.11845286     0.08500
H654        H  0.48041383  0.96494736  0.04353544     0.08500
H655        H  0.47692990  0.93942874  0.22526131     0.08500
H656        H  0.51033568  0.96538096  0.23145757     0.05300
C657        C  0.29104619  0.87820351  0.04870189    -0.20500
C658        C  0.30504411  0.89862290  0.09256273    -0.07100
C659        C  0.28585340  0.91796933  0.12964689     0.13800
C660        C  0.25336213  0.91597640  0.12240331    -0.20600
C661        C  0.23963809  0.89564123  0.07821089    -0.07100
C662        C  0.25872142  0.87645025  0.04135508     0.13700
C663        C  0.24491878  0.85312926  0.24654112    -0.23900
H664        H  0.30548317  0.86319135  0.02025467     0.15000
H665        H  0.23852323  0.93049857  0.15112918     0.15100
C666        C  0.29931723  0.94174254  0.17445324    -0.23900
H667        H  0.26302207  0.83947707  0.22201631     0.05300
H668        H  0.23186950  0.86533068  0.20868985     0.08500
H669        H  0.22910732  0.83669528  0.27525306     0.08500
H670        H  0.31525795  0.95819225  0.14611700     0.08500
H671        H  0.31215812  0.93006668  0.21346198     0.08500
H672        H  0.28095805  0.95546980  0.19791655     0.05300
C673        C  0.40989822  0.55081585  0.07615497    -0.20500
C674        C  0.39078648  0.56304746  0.27835114    -0.07100
C675        C  0.37017140  0.54277195  0.24557022     0.13800
C676        C  0.37107818  0.51059253  0.25759865    -0.20600
C677        C  0.39191837  0.49796620  0.05170611    -0.07100
C678        C  0.41066178  0.51848624  0.08854851     0.13700
C679        C  0.43240248  0.50672783  0.13886328    -0.23900
H680        H  0.42503716  0.56660249  0.10243492     0.15000
H681        H  0.35577443  0.49504151  0.23112288     0.15100
C682        C  0.34651377  0.55486448  0.19925465    -0.23900
H683        H  0.44512444  0.52611403  0.16293252     0.05300
H684        H  0.44976416  0.49192649  0.11596796     0.08500
H685        H  0.41914481  0.49281415  0.17677006     0.08500
H686        H  0.35829318  0.56662497  0.15648734     0.08500
H687        H  0.33155910  0.57162447  0.22425475     0.08500
H688        H  0.33111760  0.53573954  0.18112565     0.05300
C689        C  0.50559763  0.63199938  0.21436846    -0.20500
C690        C  0.48963801  0.65501597  0.24752005    -0.07100
C691        C  0.50664413  0.67592892  0.03712340     0.13800
C692        C  0.53890713  0.67285198  0.04305775    -0.20600
C693        C  0.55468278  0.64951897  0.01087625    -0.07100
C694        C  0.53776609  0.62854448  0.22150285     0.13700
C695        C  0.55305522  0.60134269  0.19099524    -0.23900
H696        H  0.49259027  0.61576661  0.18482195     0.15000
H697        H  0.55198908  0.68878500  0.07316304     0.15100
C698        C  0.49127838  0.70202482  0.07185989    -0.23900
H699        H  0.53622346  0.58667956  0.16379804     0.05300
H700        H  0.56317903  0.58643931  0.22919310     0.08500
H701        H  0.57182054  0.60981362  0.15670989     0.08500
H702        H  0.47461164  0.69237095  0.10977660     0.08500
H703        H  0.47884227  0.71670198  0.03663410     0.08500
H704        H  0.50856732  0.71734455  0.09634022     0.05300
C705        C  0.28596381  0.63129862  0.01819118    -0.20500
C706        C  0.30253243  0.65223153  0.22565350    -0.07100
C707        C  0.28597386  0.67171312  0.18377038     0.13800
C708        C  0.25328099  0.66939764  0.18496292    -0.20600
C709        C  0.23655436  0.64843008  0.22751417    -0.07100
C710        C  0.25319830  0.62886879  0.01921204     0.13700
C711        C  0.23681757  0.60430962  0.06263924    -0.23900
H712        H  0.29880029  0.61636130  0.05019709     0.15000
H713        H  0.24062880  0.68438499  0.15274028     0.15100
C714        C  0.30242736  0.69589725  0.13968667    -0.23900
H715        H  0.25360913  0.59004694  0.08926443     0.05300
H716        H  0.22225307  0.58835271  0.03320450     0.08500
H717        H  0.22188584  0.61540691  0.09917014     0.08500
H718        H  0.31774929  0.68452457  0.10467051     0.08500
H719        H  0.31669691  0.71226314  0.16843758     0.08500
H720        H  0.28576538  0.70968330  0.11163428     0.05300
C721        C  0.37777450  0.79828769  0.19248857    -0.20500
C722        C  0.39820266  0.80918473  0.14197173    -0.07100
C723        C  0.41930856  0.78852944  0.11417091     0.13800
C724        C  0.41887228  0.75735196  0.13668332    -0.20600
C725        C  0.39825706  0.74637698  0.18689223    -0.07100
C726        C  0.37752434  0.76722870  0.21549623     0.13700
C727        C  0.35450155  0.75695664  0.26898677    -0.23900
H728        H  0.36186477  0.81428839  0.21423644     0.15000
H729        H  0.43485089  0.74140572  0.11504055     0.15100
C730        C  0.44317186  0.79939768  0.06285034    -0.23900
H731        H  0.33942122  0.77616235  0.28363804     0.05300
H732        H  0.36694831  0.74922837  0.31243982     0.08500
H733        H  0.33919789  0.73739832  0.25294929     0.08500
H734        H  0.45820278  0.81864495  0.08160791     0.08500
H735        H  0.43145205  0.80774700  0.01887283     0.08500
H736        H  0.45843109  0.78031413  0.04828477     0.05300
O737        O  0.39320141  0.70323070  0.51329400    -0.72000
O738        O  0.39503501  0.61664829  0.30677959    -0.72200
O739        O  0.43823788  0.66329261  0.28924703    -0.72100
O740        O  0.35022866  0.65628628  0.53107118    -0.72100
O741        O  0.35388766  0.65153306  0.42682856    -0.72100
O742        O  0.44211285  0.64774766  0.44039647    -0.72100
O743        O  0.39353149  0.60648196  0.45434231    -0.72000
O744        O  0.40234850  0.69284155  0.41241463    -0.72200
V745        V  0.39426360  0.65973975  0.28327560     1.35200
V746        V  0.39796111  0.64983163  0.43526882     1.35200
C747        C  0.39795981  0.71282092  0.45532310     0.77200
C748        C  0.39311600  0.59678889  0.51261635     0.77300
C749        C  0.45528662  0.65567513  0.49204909     0.77100
C750        C  0.33698825  0.65364737  0.47748557     0.77100
O751        O  0.40141489  0.85240010  0.31507916    -0.72000
O752        O  0.39724411  0.93943982  0.27417382    -0.72200
O753        O  0.44321995  0.89983580  0.29163694    -0.72100
O754        O  0.35533051  0.89211773  0.29575921    -0.72100
O755        O  0.35422095  0.90747534  0.39506066    -0.72100
O756        O  0.44289149  0.90395785  0.39630802    -0.72100
O757        O  0.40258209  0.94878579  0.37623168    -0.72000
O758        O  0.39494173  0.86259645  0.41689753    -0.72200
V759        V  0.39927325  0.89605722  0.29593895     1.35200
V760        V  0.39861949  0.90551849  0.39434060     1.35200
C761        C  0.39827446  0.84273202  0.37346773     0.77200
C762        C  0.40017597  0.95896409  0.31887280     0.77300
C763        C  0.45807882  0.90268655  0.34318858     0.77100
C764        C  0.33959973  0.89967000  0.34501343     0.77100
O765        O  0.14310900  0.69208819  0.42549399    -0.72000
O766        O  0.14832525  0.60453030  0.39967473    -0.72200
O767        O  0.10187754  0.64428283  0.40338720    -0.72100
O768        O  0.18946851  0.65211509  0.42012256    -0.72100
O769        O  0.18448614  0.64074389  0.27307855    -0.72100
O770        O  0.09620240  0.63874350  0.25789081    -0.72100
O771        O  0.14023638  0.59635031  0.25297195    -0.72000
O772        O  0.13973729  0.68321976  0.27957681    -0.72200
V773        V  0.14561304  0.64817318  0.41409920     1.35200
V774        V  0.14034062  0.63994532  0.26389719     1.35200
C775        C  0.14048174  0.70248031  0.23239078     0.77200
C776        C  0.14406741  0.58548171  0.44722605     0.77300
C777        C  0.08414443  0.64012403  0.45274264     0.77100
C778        C  0.20209728  0.64696230  0.47371352     0.77100
O779        O  0.14551214  0.84103834  0.35075888    -0.72000
O780        O  0.14515660  0.92579971  0.40293959    -0.72200
O781        O  0.10176522  0.88126649  0.37890771    -0.72100
O782        O  0.18960487  0.88564036  0.37679070    -0.72100
O783        O  0.19072895  0.89920597  0.27469508    -0.72100
O784        O  0.10142466  0.89769132  0.27874775    -0.72100
O785        O  0.14718198  0.94065496  0.30165241    -0.72000
O786        O  0.14523552  0.85617240  0.24985765    -0.72200
V787        V  0.14557086  0.88365596  0.37523513     1.35200
V788        V  0.14610075  0.89815627  0.27809150     1.35200
C789        C  0.14533542  0.83409936  0.29144159     0.77200
C790        C  0.14672070  0.94772565  0.36071839     0.77300
C791        C  0.08643992  0.88894703  0.33014522     0.77100
C792        C  0.20522327  0.89327203  0.32601645     0.77100
O793        O  0.34564383  0.40196646  0.27745226    -0.72000
O794        O  0.43206252  0.40620399  0.48210021    -0.72200
O795        O  0.38876487  0.36037378  0.25506929    -0.72100
O796        O  0.38818779  0.44826417  0.25416241    -0.72100
O797        O  0.40088869  0.44859537  0.35519448    -0.72100
O798        O  0.39821989  0.35961924  0.35805012    -0.72100
O799        O  0.44289158  0.40462237  0.33417806    -0.72000
O800        O  0.35682379  0.40350300  0.37940384    -0.72200
V801        V  0.38893638  0.40427683  0.25666413     1.35200
V802        V  0.39959645  0.40410070  0.35476276     1.35200
C803        C  0.33660920  0.40176905  0.33615389     0.77200
C804        C  0.45217496  0.40554610  0.27559849     0.77300
C805        C  0.39272909  0.34499793  0.30679252     0.77100
C806        C  0.39402489  0.46355235  0.30428567     0.77100
O807        O  0.19466917  0.39680932  0.46268036    -0.72000
O808        O  0.10681227  0.38853421  0.49279944    -0.72200
O809        O  0.15301740  0.34874695  0.48069328    -0.72100
O810        O  0.14831892  0.43659699  0.47571322    -0.72100
O811        O  0.14525598  0.43657316  0.37089741    -0.72100
O812        O  0.14342759  0.34753990  0.37796394    -0.72100
O813        O  0.10049589  0.39166401  0.38891525    -0.72000
O814        O  0.18755377  0.39259278  0.35941330    -0.72200
V815        V  0.15062915  0.39267756  0.47602704     1.35200
V816        V  0.14422637  0.39205622  0.37625627     1.35200
C817        C  0.20597711  0.39549521  0.40568343     0.77200
C818        C  0.08869073  0.38942312  0.44550440     0.77300
C819        C  0.14887905  0.33310924  0.43045351     0.77100
C820        C  0.14655741  0.45166159  0.42271282     0.77100
O821        O  0.34598763  0.14563039  0.32611042    -0.72000
O822        O  0.43201802  0.15524552  0.36624947    -0.72200
O823        O  0.38563697  0.19467884  0.34449794    -0.72100
O824        O  0.39257707  0.10676837  0.34757752    -0.72100
O825        O  0.40171371  0.10823823  0.49372591    -0.72100
O826        O  0.40044277  0.19655550  0.49342417    -0.72100
O827        O  0.44409397  0.15459188  0.51381131    -0.72000
O828        O  0.35801358  0.15065699  0.47364803    -0.72200
V829        V  0.38921743  0.15066326  0.34416376     1.35200
V830        V  0.40083343  0.15242352  0.49561059     1.35200
C831        C  0.33729199  0.14747573  0.26809671     0.77200
C832        C  0.45278645  0.15597098  0.32162991     0.77300
C833        C  0.39251053  0.21077402  0.29359380     0.77100
C834        C  0.39833956  0.09261882  0.29600473     0.77100
O835        O  0.19762166  0.14258652  0.40113984    -0.72000
O836        O  0.11177621  0.14064558  0.35774099    -0.72200
O837        O  0.15489754  0.18530158  0.38735707    -0.72100
O838        O  0.15503660  0.09760246  0.37200484    -0.72100
O839        O  0.14025264  0.09136108  0.47280964    -0.72100
O840        O  0.14292597  0.18016583  0.48968736    -0.72100
O841        O  0.09884324  0.13677138  0.45999340    -0.72000
O842        O  0.18466832  0.13474890  0.50263589    -0.72200
V843        V  0.15452154  0.14137409  0.38159526     1.35200
V844        V  0.14192697  0.13583708  0.47943150     1.35200
C845        C  0.20581889  0.13882814  0.45909568     0.77200
C846        C  0.09065536  0.13900500  0.40165654     0.77300
C847        C  0.14918225  0.19793816  0.44080293     0.77100
C848        C  0.14750279  0.07936170  0.41930467     0.77100
O849        O  0.64022000  0.34559953  0.50249097    -0.72000
O850        O  0.64596443  0.43200211  0.29106012    -0.72200
O851        O  0.59933358  0.38997106  0.27656264    -0.72100
O852        O  0.68708417  0.38750633  0.51704305    -0.72100
O853        O  0.68711938  0.40097560  0.41514042    -0.72100
O854        O  0.59834677  0.40009278  0.42297133    -0.72100
O855        O  0.64419692  0.44362325  0.43836950    -0.72000
O856        O  0.64167647  0.35745100  0.39960492    -0.72200
V857        V  0.64318966  0.38901224  0.26972104     1.35200
V858        V  0.64277058  0.40031776  0.42095838     1.35200
C859        C  0.64068236  0.33681662  0.44445989     0.77200
C860        C  0.64573731  0.45252665  0.49617885     0.77300
C861        C  0.58387323  0.39550603  0.47667776     0.77100
C862        C  0.70221119  0.39368272  0.46469518     0.77100
O863        O  0.64811305  0.19723972  0.32452866    -0.72000
O864        O  0.64349288  0.11060174  0.28763345    -0.72200
O865        O  0.60177949  0.15508352  0.30710614    -0.72100
O866        O  0.68975887  0.15281062  0.30443610    -0.80100
O867        O  0.68889454  0.14309987  0.40816886    -0.72100
O868        O  0.59972706  0.14250445  0.40954230    -0.72100
O869        O  0.64305488  0.09952561  0.39080339    -0.72000
O870        O  0.64539902  0.18578660  0.42756223    -0.72200
V871        V  0.64572509  0.15370955  0.30798115     1.35200
V872        V  0.64433732  0.14289161  0.40707041     1.35200
C873        C  0.64720023  0.20625653  0.38244123     0.77200
C874        C  0.64281210  0.09029455  0.33316671     0.77300
C875        C  0.58561455  0.14954542  0.35840648     0.77100
C876        C  0.70441284  0.14776278  0.35557996     0.77100
O877        O  0.89674354  0.33705066  0.43885334    -0.72000
O878        O  0.89440186  0.42439602  0.39940855    -0.72200
O879        O  0.93954262  0.38373728  0.41567394    -0.72100
O880        O  0.85140430  0.37819566  0.42021998    -0.72100
O881        O  0.85070856  0.38900436  0.27243307    -0.72100
O882        O  0.93953928  0.39085084  0.26946175    -0.72100
O883        O  0.89609922  0.43328637  0.25230937    -0.72000
O884        O  0.89454574  0.34682154  0.29142174    -0.72200
V885        V  0.89548260  0.38089126  0.42052258     1.35200
V886        V  0.89519367  0.38980418  0.26940954     1.35200
C887        C  0.89553144  0.32709157  0.24728735     0.77200
C888        C  0.89559849  0.44376721  0.44469255     0.77300
C889        C  0.95456795  0.38830638  0.46648459     0.77100
C890        C  0.83599611  0.38361395  0.47123200     0.77100
O891        O  0.89855661  0.18747899  0.37402781    -0.72000
O892        O  0.89585144  0.10173736  0.42436672    -0.72200
O893        O  0.94124857  0.14552067  0.40241479    -0.72100
O894        O  0.85321741  0.14435090  0.39585655    -0.72100
O895        O  0.85551839  0.13414474  0.29360073    -0.72100
O896        O  0.94433302  0.13068109  0.30287983    -0.72100
O897        O  0.89589551  0.08965829  0.32282124    -0.72000
O898        O  0.90428702  0.17535803  0.27314222    -0.72200
V899        V  0.89730359  0.14448718  0.39718297     1.35200
V900        V  0.89993775  0.13264701  0.29995231     1.35200
C901        C  0.90225310  0.19606993  0.31530639     0.77200
C902        C  0.89496597  0.08107356  0.38183126     0.77300
C903        C  0.95793364  0.13801432  0.35440646     0.77100
C904        C  0.83918020  0.13986592  0.34359647     0.77100
O905        O  0.69514502  0.64552883  0.25633274    -0.72000
O906        O  0.60796615  0.64646239  0.47439479    -0.72200
O907        O  0.65298158  0.69016381  0.24166413    -0.72100
O908        O  0.64993689  0.60220895  0.23755523    -0.72100
O909        O  0.63820803  0.59921033  0.34033850    -0.72100
O910        O  0.64541643  0.68823948  0.34607300    -0.72100
O911        O  0.59853294  0.64653984  0.32790878    -0.72000
O912        O  0.68470568  0.64157108  0.35977014    -0.72200
V913        V  0.65137417  0.64606297  0.24197092     1.35200
V914        V  0.64184466  0.64386040  0.34156077     1.35200
C915        C  0.70463137  0.64282395  0.31374044     0.77200
C916        C  0.58846046  0.64703794  0.27101031     0.77300
C917        C  0.64989513  0.70427247  0.29417298     0.77100
C918        C  0.64337470  0.58553592  0.28760488     0.77100
O919        O  0.84404679  0.63460483  0.43493339    -0.72000
O920        O  0.93119308  0.63844743  0.46731603    -0.72200
O921        O  0.88724508  0.68015464  0.44926263    -0.72100
O922        O  0.88806932  0.59228490  0.45460777    -0.72100
O923        O  0.89480747  0.59176314  0.35001589    -0.72100
O924        O  0.90055279  0.68093970  0.34719630    -0.72100
O925        O  0.94085359  0.63481183  0.36418151    -0.72000
O926        O  0.85454929  0.63745926  0.33143941    -0.72200
V927        V  0.88778110  0.63626930  0.44952853     1.35200
V928        V  0.89748810  0.63628634  0.35008207     1.35200
C929        C  0.83457444  0.63645129  0.37741215     0.77200
C930        C  0.95086006  0.63694967  0.42090379     0.77300
C931        C  0.89425690  0.69572420  0.39802795     0.77100
C932        C  0.89149388  0.57698043  0.40369325     0.77100
O933        O  0.69783380  0.89985922  0.32212086    -0.72000
O934        O  0.61040402  0.89487581  0.35883833    -0.72200
O935        O  0.65485521  0.85344849  0.33792350    -0.72100
O936        O  0.65348048  0.94145636  0.34416370    -0.72100
O937        O  0.64882072  0.94461255  0.48961019    -0.72100
O938        O  0.64222906  0.85554950  0.48705212    -0.72100
O939        O  0.60230489  0.90172640  0.25623535    -0.72000
O940        O  0.68881271  0.89885471  0.46917298    -0.72200
V941        V  0.65403509  0.89749734  0.33881906     1.35200
V942        V  0.64569271  0.90007589  0.48988624     1.35200
C943        C  0.70816817  0.89959582  0.26419986     0.77200
C944        C  0.59147877  0.89849602  0.31350476     0.77300
C945        C  0.64829556  0.83927528  0.28683655     0.77100
C946        C  0.65098929  0.95805331  0.29333549     0.77100
O947        O  0.84783148  0.88940204  0.39463212    -0.72000
O948        O  0.93359836  0.89121569  0.34426710    -0.72200
O949        O  0.88966147  0.84616623  0.36671871    -0.72100
O950        O  0.89157063  0.93391401  0.37133146    -0.72100
O951        O  0.90544238  0.93262251  0.47172423    -0.72100
O952        O  0.90001274  0.84362097  0.46916892    -0.72100
O953        O  0.94559321  0.88735944  0.44561589    -0.72000
O954        O  0.86007860  0.88870855  0.49598403    -0.72200
V955        V  0.89089450  0.89011190  0.37129493     1.35200
V956        V  0.90263591  0.88811215  0.46873722     1.35200
C957        C  0.83932364  0.88920894  0.45375015     0.77200
C958        C  0.95417645  0.88873717  0.38659153     0.77300
C959        C  0.89434757  0.82988814  0.41691070     0.77100
C960        C  0.89833755  0.94833957  0.42194080     0.77100
C961        C  0.78901016  0.91325175  0.43704399    -0.20500
C962        C  0.80597921  0.89150571  0.47199708    -0.07100
C963        C  0.79060495  0.87301402  0.27174672     0.13800
C964        C  0.75888200  0.87709173  0.28522214    -0.20600
C965        C  0.74186677  0.89858175  0.49980796    -0.07100
C966        C  0.75730876  0.91729908  0.45051810     0.13700
C967        C  0.74187674  0.94272204  0.41292918    -0.23900
H968        H  0.80075972  0.92766151  0.39925091     0.15000
H969        H  0.74701220  0.86261975  0.32275126     0.15100
C970        C  0.80578941  0.84758095  0.30957352    -0.23900
H971        H  0.74383317  0.93835857  0.36031626     0.05300
H972        H  0.75396146  0.96549857  0.42208649     0.08500
H973        H  0.71697546  0.94479298  0.42608429     0.08500
H974        H  0.83092208  0.84620094  0.29837996     0.08500
H975        H  0.79421479  0.82474035  0.29891526     0.08500
H976        H  0.80278734  0.85139778  0.36222000     0.05300
C977        C  0.91347502  0.78257499  0.36637497    -0.20500
C978        C  0.89405713  0.79566786  0.41303100    -0.07100
C979        C  0.87407381  0.77605596  0.45250310     0.13800
C980        C  0.87445226  0.74370180  0.44540175    -0.20600
C981        C  0.89422872  0.73030665  0.39940870    -0.07100
C982        C  0.91406579  0.75014339  0.35945541     0.13700
C983        C  0.93724661  0.73746576  0.31245682    -0.23900
H984        H  0.92867699  0.79786712  0.33594104     0.15000
H985        H  0.85903099  0.72874529  0.47602160     0.15100
C986        C  0.85128707  0.78918548  0.49987717    -0.23900
H987        H  0.95148083  0.75629475  0.28660813     0.05300
H988        H  0.92506530  0.72362564  0.27543953     0.08500
H989        H  0.95324896  0.72269364  0.33981843     0.08500
H990        H  0.83541413  0.80440696  0.47314338     0.08500
H991        H  0.86399206  0.80286187  0.53635458     0.08500
H992        H  0.83689436  0.77058992  0.52607259     0.05300
C993        C  0.63013764  0.75356026  0.25093360    -0.20500
C994        C  0.65012829  0.73868938  0.29334705    -0.07100
C995        C  0.67010896  0.75685035  0.33195345     0.13800
C996        C  0.66890827  0.78952879  0.32850871    -0.20600
C997        C  0.64857358  0.80459919  0.28659447    -0.07100
C998        C  0.62883418  0.78619145  0.24750237     0.13700
C999        C  0.60508676  0.80046214  0.20488879    -0.23900
H1000       H  0.61494799  0.73943156  0.22116917     0.15000
H1001       H  0.68428891  0.80343007  0.35825789     0.15100
C1002       C  0.69370392  0.74197641  0.37435966    -0.23900
H1003       H  0.59075392  0.78250776  0.17994710     0.05300
H1004       H  0.61720960  0.81574380  0.41663806     0.08500
H1005       H  0.58918267  0.81409169  0.23529760     0.08500
H1006       H  0.70949964  0.72799070  0.34434079     0.08500
H1007       H  0.68171060  0.72657425  0.41155745     0.08500
H1008       H  0.70814369  0.75967017  0.39978588     0.05300
C1009       C  0.78870283  0.61809499  0.31620408    -0.20500
C1010       C  0.80106825  0.63780403  0.36331204    -0.07100
C1011       C  0.78178721  0.65965599  0.39277972     0.13800
C1012       C  0.75047246  0.66091993  0.37501816    -0.20600
C1013       C  0.73811426  0.64124620  0.32786796    -0.07100
C1014       C  0.75736004  0.61935545  0.29849442     0.13700
C1015       C  0.74454014  0.59628406  0.50099559    -0.23900
H1016       H  0.80362194  0.60145351  0.29355918     0.15000
H1017       H  0.73554929  0.67754009  0.39771572     0.15100
C1018       C  0.79444935  0.68263715  0.44060692    -0.23900
H1019       H  0.76263833  0.58040103  0.48379074     0.05300
H1020       H  0.73563235  0.60871378  0.45804101     0.08500
H1021       H  0.72522597  0.58184717  0.52458412     0.08500
H1022       H  0.81390209  0.69705270  0.41746436     0.08500
H1023       H  0.80311438  0.67016331  0.48373462     0.08500
H1024       H  0.77632638  0.69856003  0.45753317     0.05300
C1025       C  0.87349800  0.99500680  0.38121571    -0.20500
C1026       C  0.89614322  0.98262792  0.42116051    -0.07100
C1027       C  0.91637255  0.00313941  0.45456348     0.13800
C1028       C  0.91457339  0.03557190  0.44352394    -0.20600
C1029       C  0.89324405  0.04756926  0.39971862    -0.07100
C1030       C  0.87175056  0.02704925  0.37022259     0.13700
C1031       C  0.84620879  0.03880054  0.32868155    -0.23900
H1032       H  0.85722260  0.97936465  0.35735914     0.15000
H1033       H  0.93075054  0.05150686  0.46682238     0.15100
C1034       C  0.94073615  0.99108795  0.49894101    -0.23900
H1035       H  0.83040101  0.01955171  0.31248960     0.05300
H1036       H  0.85621719  0.05105367  0.28457739     0.08500
H1037       H  0.83206920  0.05482165  0.35759182     0.08500
H1038       H  0.95661902  0.97598103  0.47175787     0.08500
H1039       H  0.92830019  0.97744347  0.29050190     0.08500
H1040       H  0.95501184  0.01041746  0.51957263     0.05300
C1041       C  0.91375176  0.53080911  0.45423878    -0.20500
C1042       C  0.89330629  0.54277711  0.40889092    -0.07100
C1043       C  0.87418013  0.52211081  0.37366289     0.13800
C1044       C  0.87598992  0.48975772  0.38495440    -0.20600
C1045       C  0.89604522  0.47780417  0.43146928    -0.07100
C1046       C  0.91540199  0.49866908  0.46619869     0.13700
C1047       C  0.93832986  0.48746025  0.51512752    -0.23900
H1048       H  0.92832314  0.54687836  0.48116028     0.15000
H1049       H  0.86105013  0.47375123  0.35875434     0.15100
C1050       C  0.85070360  0.53411145  0.32714381    -0.23900
H1051       H  0.95239045  0.50709894  0.53516152     0.05300
H1052       H  0.95464285  0.47141194  0.49231745     0.08500
H1053       H  0.92566469  0.47494187  0.30678877     0.08500
H1054       H  0.86270871  0.54829875  0.28784302     0.08500
H1055       H  0.83402007  0.54880953  0.35322648     0.08500
H1056       H  0.83724396  0.51476358  0.30456771     0.05300
C1057       C  0.91858882  0.27562713  0.48242624    -0.20500
C1058       C  0.89635787  0.29339509  0.26420000    -0.07100
C1059       C  0.87692087  0.27889095  0.31378879     0.13800
C1060       C  0.87987242  0.24725328  0.32888646    -0.20600
C1061       C  0.90187067  0.22951120  0.29704053    -0.07100
C1062       C  0.92215428  0.24399962  0.24936660     0.13700
C1063       C  0.94905245  0.22712042  0.47052661    -0.23900
H1064       H  0.93407465  0.28683293  0.44583664     0.15000
H1065       H  0.86443079  0.23617427  0.36580980     0.15100
C1066       C  0.85192968  0.29507579  0.35096793    -0.23900
H1067       H  0.96340949  0.24238850  0.43623954     0.05300
H1068       H  0.94054326  0.20667631  0.44370036     0.08500
H1069       H  0.96432470  0.21907361  0.50970363     0.08500
H1070       H  0.82887159  0.28368159  0.34145076     0.08500
H1071       H  0.85084871  0.32004496  0.33843718     0.08500
H1072       H  0.85599152  0.29284578  0.40367446     0.05300
C1073       C  0.66363247  0.04623411  0.27170937    -0.20500
C1074       C  0.64293362  0.05656173  0.31966048    -0.07100
C1075       C  0.62395926  0.03437248  0.35578898     0.13800
C1076       C  0.62706423  0.00253462  0.34500907    -0.20600
C1077       C  0.64836156  0.99213568  0.29859106    -0.07100
C1078       C  0.66673841  0.01421739  0.26103386     0.13700
C1079       C  0.69098434  0.00415965  0.21297189    -0.23900
H1080       H  0.67824694  0.06324779  0.24416270     0.15000
H1081       H  0.61265803  0.98551113  0.37304649     0.15100
C1082       C  0.59921945  0.04403144  0.40329309    -0.23900
H1083       H  0.70358637  0.02444115  0.18842948     0.05300
H1084       H  0.67970393  0.98993988  0.42483473     0.08500
H1085       H  0.70829791  0.99023640  0.23873710     0.08500
H1086       H  0.58273092  0.05870929  0.37714253     0.08500
H1087       H  0.60969827  0.05717836  0.44339116     0.08500
H1088       H  0.58575914  0.02361363  0.42525475     0.05300
C1089       C  0.79070102  0.16263907  0.38638125    -0.20500
C1090       C  0.80457678  0.14230537  0.34257001    -0.07100
C1091       C  0.78500758  0.12460894  0.30164970     0.13800
C1092       C  0.75246295  0.12699716  0.30726423    -0.20600
C1093       C  0.73881977  0.14652142  0.35253244    -0.07100
C1094       C  0.75819618  0.16521150  0.39132288     0.13700
C1095       C  0.74479531  0.18892322  0.43565322    -0.23900
H1096       H  0.80544733  0.17681915  0.41689606     0.15000
H1097       H  0.73743306  0.11319511  0.27656896     0.15100
C1098       C  0.79781317  0.10253793  0.50301265    -0.23900
H1099       H  0.76329854  0.20217292  0.46130528     0.05300
H1100       H  0.72911656  0.17715760  0.47265213     0.08500
H1101       H  0.73136915  0.20580347  0.40708484     0.08500
H1102       H  0.81057343  0.08433099  0.52838541     0.08500
H1103       H  0.81381265  0.11518224  0.46805846     0.08500
H1104       H  0.77910869  0.09084534  0.47505288     0.05300
C1105       C  0.66525722  0.53956848  0.23756660    -0.20500
C1106       C  0.64374624  0.55102823  0.28265294    -0.07100
C1107       C  0.62361012  0.52940047  0.31821484     0.13800
C1108       C  0.62572362  0.49725339  0.30722267    -0.20600
C1109       C  0.64663280  0.48621170  0.51049537    -0.07100
C1110       C  0.66701283  0.50767162  0.22626099     0.13700
C1111       C  0.69178046  0.49706605  0.42988217    -0.23900
H1112       H  0.68107354  0.55578763  0.21079571     0.15000
H1113       H  0.60998198  0.48074384  0.33345401     0.15100
C1114       C  0.59842258  0.53884329  0.36501506    -0.23900
H1115       H  0.70676014  0.51682086  0.15979993     0.05300
H1116       H  0.68127395  0.48443614  0.38906362     0.08500
H1117       H  0.70716761  0.48134750  0.20766764     0.08500
H1118       H  0.59613407  0.56426357  0.36725943     0.08500
H1119       H  0.60314569  0.52958960  0.41433242     0.08500
H1120       H  0.57553798  0.52889770  0.34981377     0.05300
C1121       C  0.74939256  0.37066630  0.25799234    -0.20500
C1122       C  0.73657297  0.39109986  0.46264482    -0.07100
C1123       C  0.75686568  0.40826512  0.41847679     0.13800
C1124       C  0.78920563  0.40501000  0.42242697    -0.20600
C1125       C  0.80176427  0.38520431  0.46918851    -0.07100
C1126       C  0.78158675  0.36738343  0.26150413     0.13700
C1127       C  0.79360579  0.34352980  0.30781215    -0.23900
H1128       H  0.73400534  0.35683539  0.29085580     0.15000
H1129       H  0.80490837  0.41838100  0.38938253     0.15100
C1130       C  0.74507928  0.43081276  0.36865816    -0.23900
H1131       H  0.77454041  0.33129297  0.33698748     0.05300
H1132       H  0.80971434  0.35491702  0.34178884     0.08500
H1133       H  0.80583919  0.32589649  0.27943007     0.08500
H1134       H  0.73234505  0.44922950  0.39301647     0.08500
H1135       H  0.72927329  0.41856652  0.33542508     0.08500
H1136       H  0.76437710  0.44225598  0.33882745     0.05300
C1137       C  0.66282562  0.29445799  0.38064770    -0.20500
C1138       C  0.64160451  0.30333628  0.42901153    -0.07100
C1139       C  0.62254336  0.28015905  0.46202749     0.13800
C1140       C  0.62544018  0.24872418  0.44612465    -0.20600
C1141       C  0.64669047  0.23979305  0.39773871    -0.07100
C1142       C  0.66600295  0.26302616  0.36514957     0.13700
C1143       C  0.69126391  0.25577376  0.31629706    -0.23900
H1144       H  0.67775050  0.31218867  0.35585059     0.15000
H1145       H  0.61052076  0.23098148  0.47084603     0.15100
C1146       C  0.59817465  0.28847307  0.51187721    -0.23900
H1147       H  0.68611512  0.26655989  0.26854324     0.05300
H1148       H  0.69423136  0.23052671  0.31009635     0.08500
H1149       H  0.71397560  0.26572379  0.33245653     0.08500
H1150       H  0.58170938  0.30473713  0.48979678     0.08500
H1151       H  0.60930305  0.29968936  0.55366839     0.08500
H1152       H  0.58451400  0.26751819  0.53079209     0.05300
C1153       C  0.04461904  0.11970649  0.33968376    -0.20500
C1154       C  0.05713276  0.13998474  0.38570863    -0.07100
C1155       C  0.03725885  0.16073446  0.41677042     0.13800
C1156       C  0.00543087  0.15979974  0.40384727    -0.20600
C1157       C  0.99244901  0.13878552  0.36004479    -0.07100
C1158       C  0.01243068  0.11869544  0.32663647     0.13700
C1159       C  0.99993152  0.09522988  0.27974635    -0.23900
H1160       H  0.05992397  0.10398245  0.31529731     0.15000
H1161       H  0.99046860  0.17567855  0.42863168     0.15100
C1162       C  0.04968565  0.18508145  0.46131931    -0.23900
H1163       H  0.01867265  0.08096175  0.50932259     0.05300
H1164       H  0.98896956  0.10734078  0.23867692     0.08500
H1165       H  0.98235411  0.07918257  0.30482183     0.08500
H1166       H  0.06739579  0.20004464  0.43393125     0.08500
H1167       H  0.06014072  0.17385558  0.50406767     0.08500
H1168       H  0.03120960  0.20031217  0.22897510     0.05300
C1169       C  0.49721392  0.13740710  0.38579855    -0.20500
C1170       C  0.48645684  0.15718819  0.33665722    -0.07100
C1171       C  0.50828452  0.17660625  0.30078359     0.13800
C1172       C  0.54016885  0.17396907  0.31099590    -0.20600
C1173       C  0.55123892  0.15267149  0.35680556    -0.07100
C1174       C  0.52935639  0.13487167  0.39644169     0.13700
C1175       C  0.53946897  0.11218850  0.44772377    -0.23900
H1176       H  0.48044152  0.12302812  0.41443470     0.15000
H1177       H  0.55671289  0.18867226  0.28239329     0.15100
C1178       C  0.49802538  0.20191896  0.50552033    -0.23900
H1179       H  0.51923603  0.10034978  0.47398872     0.05300
H1180       H  0.55374700  0.12447539  0.48377039     0.08500
H1181       H  0.55343145  0.09412694  0.42505884     0.08500
H1182       H  0.48382498  0.21810883  0.53369818     0.08500
H1183       H  0.48443112  0.19183020  0.46561534     0.08500
H1184       H  0.51815429  0.21566578  0.48313998     0.05300
C1185       C  0.28464462  0.12152533  0.28098402    -0.20500
C1186       C  0.30371132  0.14573523  0.50280342    -0.07100
C1187       C  0.29034023  0.16786119  0.46101674     0.13800
C1188       C  0.25848666  0.16462603  0.44705702    -0.20600
C1189       C  0.23938709  0.14035391  0.47512560    -0.07100
C1190       C  0.25274330  0.11839446  0.26720145     0.13700
C1191       C  0.23388783  0.09079459  0.29528129    -0.23900
H1192       H  0.29493819  0.10459168  0.31297350     0.15000
H1193       H  0.24821869  0.18161958  0.41516225     0.15100
C1194       C  0.30909456  0.19585069  0.43382638    -0.23900
H1195       H  0.24831313  0.07509618  0.32456076     0.05300
H1196       H  0.22362130  0.07708389  0.25554562     0.08500
H1197       H  0.21502200  0.09887125  0.32738705     0.08500
H1198       H  0.32840804  0.18835609  0.40217148     0.08500
H1199       H  0.31887372  0.20956246  0.47406781     0.08500
H1200       H  0.29464076  0.21144638  0.40437293     0.05300
C1201       C  0.03815697  0.40970382  0.41531692    -0.20500
C1202       C  0.05449811  0.38928632  0.45478613    -0.07100
C1203       C  0.03781508  0.36884431  0.49917064     0.13800
C1204       C  0.00517031  0.37007632  0.50413896    -0.20600
C1205       C  0.98890100  0.39013025  0.46366798    -0.07100
C1206       C  0.00559960  0.41029644  0.41884468     0.13700
C1207       C  0.98942448  0.43288495  0.37525428    -0.23900
H1208       H  0.05101492  0.42523252  0.38109378     0.15000
H1209       H  0.99220309  0.35426667  0.28770109     0.15100
C1210       C  0.05395944  0.34410765  0.28747258    -0.23900
H1211       H  0.00628004  0.44773244  0.34528907     0.05300
H1212       H  0.97503569  0.44841592  0.40446608     0.08500
H1213       H  0.97426998  0.42002697  0.34183355     0.08500
H1214       H  0.07083333  0.35501019  0.32040020     0.08500
H1215       H  0.06655195  0.32893827  0.50415266     0.08500
H1216       H  0.03713724  0.32928770  0.31757171     0.05300
C1217       C  0.16953901  0.24953818  0.39792435    -0.20500
C1218       C  0.15025287  0.23272472  0.44383691    -0.07100
C1219       C  0.13177882  0.24966656  0.48760741     0.13800
C1220       C  0.13199185  0.28239225  0.48196481    -0.20600
C1221       C  0.15010509  0.29875802  0.43404014    -0.07100
C1222       C  0.16992782  0.28223379  0.39295544     0.13700
C1223       C  0.19264700  0.29902087  0.34615608    -0.23900
H1224       H  0.18444934  0.23697099  0.36537674     0.15000
H1225       H  0.11755270  0.29536949  0.51471728     0.15100
C1226       C  0.11114904  0.23389218  0.53937240    -0.23900
H1227       H  0.20686689  0.28253809  0.31855063     0.05300
H1228       H  0.20871578  0.31447684  0.37336025     0.08500
H1229       H  0.18002081  0.31322020  0.31082137     0.08500
H1230       H  0.12521800  0.21996574  0.57195577     0.08500
H1231       H  0.09370535  0.21833007  0.51749202     0.08500
H1232       H  0.09860784  0.25085361  0.56918539     0.05300
C1233       C  0.53977595  0.42012596  0.27828960    -0.20500
C1234       C  0.55002105  0.39870461  0.48330880    -0.07100
C1235       C  0.52795702  0.38041150  0.44954355     0.13800
C1236       C  0.49601303  0.38399919  0.46258588    -0.20600
C1237       C  0.48580624  0.40495446  0.25895205    -0.07100
C1238       C  0.50801560  0.42373703  0.29113532     0.13700
C1239       C  0.49846572  0.44882554  0.33634623    -0.23900
H1240       H  0.55686226  0.43429815  0.30351203     0.15000
H1241       H  0.47898836  0.36949571  0.43799942     0.15100
C1242       C  0.53711177  0.35579657  0.40259558    -0.23900
H1243       H  0.51893307  0.46205112  0.35526237     0.05300
H1244       H  0.48485825  0.43871595  0.37862671     0.08500
H1245       H  0.48431948  0.46546057  0.30905114     0.08500
H1246       H  0.52746731  0.33266447  0.42038299     0.08500
H1247       H  0.56268229  0.35406917  0.39635858     0.08500
H1248       H  0.52733291  0.36100364  0.35445736     0.05300
C1249       C  0.37199357  0.25910612  0.33964140    -0.20500
C1250       C  0.39154304  0.24532766  0.29365950    -0.07100
C1251       C  0.41051002  0.26489549  0.25115401     0.13800
C1252       C  0.41048126  0.29725566  0.25804669    -0.20600
C1253       C  0.39184751  0.31078204  0.30539857    -0.07100
C1254       C  0.37168755  0.29158760  0.34580695     0.13700
C1255       C  0.34863591  0.30433220  0.39371688    -0.23900
H1256       H  0.35684997  0.24440725  0.37135461     0.15000
H1257       H  0.42522510  0.31227373  0.22608631     0.15100
C1258       C  0.43147583  0.25228997  0.19927993    -0.23900
H1259       H  0.35322660  0.29528370  0.44317608     0.05300
H1260       H  0.32464239  0.29645885  0.38103454     0.08500
H1261       H  0.34930638  0.33013735  0.39459386     0.08500
H1262       H  0.41740650  0.23864596  0.41463928     0.08500
H1263       H  0.44836717  0.23694508  0.22143093     0.08500
H1264       H  0.44473252  0.27111559  0.17130378     0.05300
C1265       C  0.29213803  0.41908099  0.40237785    -0.20500
C1266       C  0.30326677  0.39952477  0.35417951    -0.07100
C1267       C  0.28261814  0.37777747  0.32547526     0.13800
C1268       C  0.25109699  0.37680365  0.34451463    -0.20600
C1269       C  0.23979568  0.39663076  0.39201610    -0.07100
C1270       C  0.26052604  0.41802441  0.42157121     0.13700
C1271       C  0.24933241  0.44073731  0.47079634    -0.23900
H1272       H  0.30820902  0.43559846  0.42434985     0.15000
H1273       H  0.23505714  0.36055686  0.32174695     0.15100
C1274       C  0.29369816  0.35486368  0.52630951    -0.23900
H1275       H  0.26869338  0.45625686  0.48748792     0.05300
H1276       H  0.23897268  0.42802604  0.51392009     0.08500
H1277       H  0.23150767  0.45558827  0.44925614     0.08500
H1278       H  0.31216001  0.34066902  0.54740352     0.08500
H1279       H  0.30316842  0.36729116  0.48205857     0.08500
H1280       H  0.27447983  0.33868759  0.51140275     0.05300
C1281       C  0.12788851  0.99126273  0.42781159    -0.20500
C1282       C  0.14829457  0.98092725  0.37925458    -0.07100
C1283       C  0.16963328  0.00265064  0.34803497     0.13800
C1284       C  0.16905251  0.03417199  0.36393654    -0.20600
C1285       C  0.14797322  0.04498440  0.41056639    -0.07100
C1286       C  0.12733179  0.02306680  0.44373878     0.13700
C1287       C  0.10372900  0.03307769  0.49348074    -0.23900
H1288       H  0.11169100  0.97451041  0.45201577     0.15000
H1289       H  0.18506393  0.05063613  0.33887329     0.15100
C1290       C  0.19377705  0.99274425  0.29907662    -0.23900
H1291       H  0.08895735  0.01300188  0.51305975     0.05300
H1292       H  0.08819745  0.05020517  0.47119678     0.08500
H1293       H  0.11574276  0.04384332  0.53478070     0.08500
H1294       H  0.18237479  0.98354253  0.25553802     0.08500
H1295       H  0.20812622  0.97446955  0.32099658     0.08500
H1296       H  0.20972792  0.01255135  0.28265140     0.05300
C1297       C  0.03837874  0.86563114  0.38162428    -0.20500
C1298       C  0.05189269  0.88725741  0.33588880    -0.07100
C1299       C  0.03249222  0.90800845  0.30300406     0.13800
C1300       C  0.00037945  0.90742960  0.31912052    -0.20600
C1301       C  0.98747246  0.88703391  0.36785774    -0.07100
C1302       C  0.00658702  0.86526801  0.39817542     0.13700
C1303       C  0.99360773  0.84106570  0.44703501    -0.23900
H1304       H  0.05302291  0.84923775  0.40597917     0.15000
H1305       H  0.98546502  0.92371906  0.29523403     0.15100
C1306       C  0.04554540  0.93172190  0.25350192    -0.23900
H1307       H  0.97451941  0.82707542  0.17543034     0.05300
H1308       H  0.01163050  0.82477889  0.46260450     0.08500
H1309       H  0.98478493  0.85243714  0.49109959     0.08500
H1310       H  0.05656410  0.91973268  0.21237709     0.08500
H1311       H  0.02707526  0.94637105  0.23366055     0.08500
H1312       H  0.06321811  0.94740400  0.52611263     0.05300
C1313       C  0.16299127  0.53873854  0.39109870    -0.20500
C1314       C  0.14338979  0.55124150  0.43862562    -0.07100
C1315       C  0.12366184  0.53072615  0.47762641     0.13800
C1316       C  0.12479554  0.49850526  0.46929712    -0.20600
C1317       C  0.14494035  0.48598559  0.42325716    -0.07100
C1318       C  0.16417243  0.50628990  0.38321409     0.13700
C1319       C  0.18704721  0.49388307  0.33470996    -0.23900
H1320       H  0.17801112  0.55439196  0.36111756     0.15000
H1321       H  0.11004044  0.48278048  0.49973311     0.15100
C1322       C  0.10051125  0.54233987  0.27684129    -0.23900
H1323       H  0.20067991  0.51299797  0.30841737     0.05300
H1324       H  0.17450896  0.47998326  0.29841647     0.08500
H1325       H  0.20363428  0.47882128  0.35976934     0.08500
H1326       H  0.08480270  0.55884429  0.25346216     0.08500
H1327       H  0.11283375  0.55420939  0.31631736     0.08500
H1328       H  0.08578112  0.52299801  0.29960187     0.05300
C1329       C  0.03195405  0.65874309  0.47981823    -0.20500
C1330       C  0.05003608  0.63769949  0.44629540    -0.07100
C1331       C  0.03535884  0.61573863  0.40584144     0.13800
C1332       C  0.00290079  0.61593454  0.39888092    -0.20600
C1333       C  0.98480051  0.63733805  0.43178672    -0.07100
C1334       C  0.99964397  0.65935275  0.47176274     0.13700
C1335       C  0.98194512  0.68492166  0.25212681    -0.23900
H1336       H  0.04329114  0.67549268  0.26064199     0.15000
H1337       H  0.99152505  0.59914051  0.36792459     0.15100
C1338       C  0.05353266  0.59131562  0.37198791    -0.23900
H1339       H  0.99749816  0.70091154  0.27940299     0.05300
H1340       H  0.96381966  0.67492034  0.28630762     0.08500
H1341       H  0.97078530  0.69884212  0.21370814     0.08500
H1342       H  0.06544351  0.57680601  0.40806873     0.08500
H1343       H  0.07123589  0.60243723  0.33834069     0.08500
H1344       H  0.03822492  0.57563221  0.34348603     0.05300
C1345       C  0.12158350  0.78071702  0.30426104    -0.20500
C1346       C  0.14378866  0.80085199  0.27205530    -0.07100
C1347       C  0.16360549  0.78841459  0.22371144     0.13800
C1348       C  0.16112727  0.75647480  0.21054291    -0.20600
C1349       C  0.13951416  0.73638861  0.24393452    -0.07100
C1350       C  0.11875876  0.74885540  0.28997684     0.13700
C1351       C  0.09241826  0.72917736  0.32135327    -0.23900
H1352       H  0.10594252  0.79013186  0.34021208     0.15000
H1353       H  0.17699908  0.74699808  0.42481865     0.15100
C1354       C  0.18898487  0.80708728  0.18733320    -0.23900
H1355       H  0.07753601  0.74306489  0.35357605     0.05300
H1356       H  0.10143903  0.70991783  0.35105877     0.08500
H1357       H  0.07751388  0.71929869  0.28316294     0.08500
H1358       H  0.21195565  0.79819935  0.20069447     0.08500
H1359       H  0.18865090  0.83220557  0.44689231     0.08500
H1360       H  0.18661765  0.80414839  0.38422239     0.05300
C1361       C  0.42281531  0.01128444  0.34005798    -0.20500
C1362       C  0.40115102  0.99298730  0.30622074    -0.07100
C1363       C  0.37935619  0.00775632  0.26683246     0.13800
C1364       C  0.38001727  0.04046270  0.26163661    -0.20600
C1365       C  0.40093530  0.05858351  0.29737041    -0.07100
C1366       C  0.42291840  0.04392360  0.33628314     0.13700
C1367       C  0.44682803  0.06261674  0.37293170    -0.23900
H1368       H  0.43943115  0.99993117  0.37053261     0.15000
H1369       H  0.36318141  0.05197771  0.48233464     0.15100
C1370       C  0.35400133  0.98938768  0.48445532    -0.23900
H1371       H  0.46292385  0.04737411  0.39911428     0.05300
H1372       H  0.43510968  0.07704075  0.40925996     0.08500
H1373       H  0.46095748  0.07803448  0.33855782     0.08500
H1374       H  0.33968850  0.97568904  0.52147626     0.08500
H1375       H  0.36427004  0.97336770  0.44949475     0.08500
H1376       H  0.33834184  0.00478980  0.45748880     0.05300
C1377       C  0.50820718  0.88211903  0.37719830    -0.20500
C1378       C  0.49234363  0.90396583  0.34044806    -0.07100
C1379       C  0.50923789  0.92491949  0.29757565     0.13800
C1380       C  0.54163242  0.92277957  0.29093501    -0.20600
C1381       C  0.55754905  0.90025345  0.32605297    -0.07100
C1382       C  0.54060475  0.87962961  0.36964094     0.13700
C1383       C  0.55606757  0.85357362  0.40453507    -0.23900
H1384       H  0.49497265  0.86592173  0.40943688     0.15000
H1385       H  0.55453092  0.93881937  0.50773836     0.15100
C1386       C  0.49316813  0.94995937  0.50974406    -0.23900
H1387       H  0.53907871  0.83870810  0.43414035     0.05300
H1388       H  0.57368185  0.86323634  0.43749672     0.08500
H1389       H  0.56750271  0.83859273  0.36864494     0.08500
H1390       H  0.48028877  0.96478194  0.29376274     0.08500
H1391       H  0.47662651  0.93929617  0.47553998     0.08500
H1392       H  0.51012986  0.96516332  0.48082271     0.05300
C1393       C  0.29100169  0.87832867  0.29856460    -0.20500
C1394       C  0.30502133  0.89867333  0.34254706    -0.07100
C1395       C  0.28582723  0.91793506  0.37984482     0.13800
C1396       C  0.25332338  0.91592672  0.37268296    -0.20600
C1397       C  0.23958101  0.89566899  0.32835511    -0.07100
C1398       C  0.25866864  0.87656764  0.29128920     0.13700
C1399       C  0.24490935  0.85279326  0.49722134    -0.23900
H1400       H  0.30542855  0.86337340  0.26995860     0.15000
H1401       H  0.23848948  0.93038756  0.40156497     0.15100
C1402       C  0.29929552  0.94163071  0.42482170    -0.23900
H1403       H  0.26299469  0.83892695  0.47320512     0.05300
H1404       H  0.23205694  0.86493529  0.45896329     0.08500
H1405       H  0.22891545  0.83655464  0.52599063     0.08500
H1406       H  0.31519003  0.95815999  0.39657320     0.08500
H1407       H  0.31218588  0.92989560  0.46367913     0.08500
H1408       H  0.28093308  0.95527875  0.44849027     0.05300
C1409       C  0.40995007  0.55083720  0.32603215    -0.20500
C1410       C  0.39077689  0.56304620  0.52827475    -0.07100
C1411       C  0.37025560  0.54275788  0.49529140     0.13800
C1412       C  0.37115294  0.51058078  0.50734959    -0.20600
C1413       C  0.39189147  0.49799240  0.30176272    -0.07100
C1414       C  0.41070487  0.51851110  0.33845506     0.13700
C1415       C  0.43251814  0.50674646  0.38861562    -0.23900
H1416       H  0.42513088  0.56662330  0.35221844     0.15000
H1417       H  0.35590204  0.49502787  0.48075779     0.15100
C1418       C  0.34671292  0.55482830  0.44869033    -0.23900
H1419       H  0.44537801  0.52612455  0.41242365     0.05300
H1420       H  0.44976106  0.49184480  0.36563936     0.08500
H1421       H  0.41929970  0.49292541  0.42672246     0.08500
H1422       H  0.35858872  0.56662443  0.40608121     0.08500
H1423       H  0.33165887  0.57155534  0.47352167     0.08500
H1424       H  0.33140836  0.53568765  0.43033134     0.05300
C1425       C  0.50564651  0.63196215  0.46472348    -0.20500
C1426       C  0.48966048  0.65499729  0.49776415    -0.07100
C1427       C  0.50665386  0.67580601  0.28714877     0.13800
C1428       C  0.53892191  0.67271408  0.29295077    -0.20600
C1429       C  0.55468809  0.64945016  0.26052227    -0.07100
C1430       C  0.53781707  0.62854930  0.47190356     0.13700
C1431       C  0.55316420  0.60135651  0.44148025    -0.23900
H1432       H  0.49266278  0.61569652  0.43520972     0.15000
H1433       H  0.55201758  0.68857691  0.32318306     0.15100
C1434       C  0.49131587  0.70180649  0.32226030    -0.23900
H1435       H  0.53636587  0.58665390  0.41428926     0.05300
H1436       H  0.56329814  0.58648989  0.47973060     0.08500
H1437       H  0.57193294  0.60984177  0.40720465     0.08500
H1438       H  0.47459753  0.69206208  0.35998187     0.08500
H1439       H  0.47895080  0.71664621  0.28721691     0.08500
H1440       H  0.50861140  0.71698458  0.34706883     0.05300
C1441       C  0.28594356  0.63138561  0.26855153    -0.20500
C1442       C  0.30257597  0.65228375  0.47540466    -0.07100
C1443       C  0.28602557  0.67187267  0.43372250     0.13800
C1444       C  0.25332663  0.66960501  0.43497306    -0.20600
C1445       C  0.23659648  0.64856421  0.47736686    -0.07100
C1446       C  0.25317814  0.62889561  0.26951266     0.13700
C1447       C  0.23682570  0.60434553  0.31300940    -0.23900
H1448       H  0.29879143  0.61652004  0.30068351     0.15000
H1449       H  0.24067576  0.68465362  0.40287238     0.15100
C1450       C  0.30250436  0.69607194  0.38971771    -0.23900
H1451       H  0.25363154  0.59027654  0.34004672     0.05300
H1452       H  0.22246802  0.58821569  0.28354746     0.08500
H1453       H  0.22169807  0.61541794  0.34921310     0.08500
H1454       H  0.31756307  0.68466897  0.35424885     0.08500
H1455       H  0.31705494  0.71220782  0.41842842     0.08500
H1456       H  0.28584872  0.71011297  0.36220910     0.05300
C1457       C  0.37792611  0.79835233  0.44274519    -0.20500
C1458       C  0.39828695  0.80921866  0.39208137    -0.07100
C1459       C  0.41937598  0.78854911  0.36427071     0.13800
C1460       C  0.41894484  0.75737931  0.38682536    -0.20600
C1461       C  0.39833414  0.74641286  0.43704572    -0.07100
C1462       C  0.37765259  0.76728987  0.46574198     0.13700
C1463       C  0.35461498  0.75703862  0.51922729    -0.23900
H1464       H  0.36204770  0.81436745  0.46454460     0.15000
H1465       H  0.43491240  0.74142414  0.36517144     0.15100
C1466       C  0.44320611  0.79938840  0.31286547    -0.23900
H1467       H  0.33974089  0.77633658  0.53427438     0.05300
H1468       H  0.36702074  0.74903533  0.56250994     0.08500
H1469       H  0.33911577  0.73768338  0.50296619     0.08500
H1470       H  0.45821539  0.81868574  0.33148999     0.08500
H1471       H  0.43144999  0.80765511  0.26886420     0.08500
H1472       H  0.45849436  0.78031176  0.29839191     0.05300
O1473       O  0.39319707  0.70321671  0.76329064    -0.72000
O1474       O  0.39498642  0.61664173  0.55674944    -0.72200
O1475       O  0.43824135  0.66324351  0.53939156    -0.72100
O1476       O  0.35026404  0.65625469  0.78129926    -0.72100
O1477       O  0.35389121  0.65145502  0.67706372    -0.72100
O1478       O  0.44211928  0.64770943  0.69051363    -0.72100
O1479       O  0.39355166  0.60643436  0.70461641    -0.72000
O1480       O  0.40234451  0.69276243  0.66244175    -0.72200
V1481       V  0.39427046  0.65973882  0.53328181     1.35200
V1482       V  0.39796834  0.64977103  0.68543214     1.35200
C1483       C  0.39794166  0.71276689  0.70528595     0.77200
C1484       C  0.39316642  0.59677343  0.76290726     0.77300
C1485       C  0.45531098  0.65569661  0.74210838     0.77100
C1486       C  0.33700600  0.65359230  0.72773783     0.77100
O1487       O  0.40132676  0.85238264  0.56515512    -0.72000
O1488       O  0.39725012  0.93944217  0.52451810    -0.72200
O1489       O  0.44318312  0.89978820  0.54187874    -0.72100
O1490       O  0.35530414  0.89213172  0.54595003    -0.72100
O1491       O  0.35418571  0.90736673  0.64534735    -0.72100
O1492       O  0.44286525  0.90392041  0.64654415    -0.72100
O1493       O  0.40251323  0.94873413  0.62661722    -0.72000
O1494       O  0.39492358  0.86250360  0.66702936    -0.72200
V1495       V  0.39923959  0.89604727  0.54616230     1.35200
V1496       V  0.39858542  0.90544583  0.64460109     1.35200
C1497       C  0.39818845  0.84267163  0.62350890     0.77200
C1498       C  0.40013658  0.95894383  0.56926916     0.77300
C1499       C  0.45804797  0.90266521  0.59341389     0.77100
C1500       C  0.33957487  0.89960288  0.59525995     0.77100
O1501       O  0.14316490  0.69205096  0.67569529    -0.72000
O1502       O  0.14833652  0.60449995  0.64980265    -0.72200
O1503       O  0.10190852  0.64428708  0.65348245    -0.72100
O1504       O  0.18949172  0.65203116  0.67033601    -0.72100
O1505       O  0.18454283  0.64080497  0.52291428    -0.72100
O1506       O  0.09626445  0.63882031  0.50784613    -0.72100
O1507       O  0.14027063  0.59640086  0.50290917    -0.72000
O1508       O  0.13981539  0.68327987  0.52940875    -0.72200
V1509       V  0.14564151  0.64813739  0.66426138     1.35200
V1510       V  0.14039885  0.64000364  0.51378649     1.35200
C1511       C  0.14050750  0.70252269  0.48219631     0.77200
C1512       C  0.14408618  0.58544800  0.69734803     0.77300
C1513       C  0.08415337  0.64009962  0.70279774     0.77100
C1514       C  0.20210817  0.64685624  0.72393000     0.77100
O1515       O  0.14562561  0.84105175  0.60060056    -0.72000
O1516       O  0.14512617  0.92579223  0.65287340    -0.72200
O1517       O  0.10180358  0.88120981  0.62873883    -0.72100
O1518       O  0.18963478  0.88570633  0.62671208    -0.72100
O1519       O  0.19076781  0.89918532  0.52456825    -0.72100
O1520       O  0.10146424  0.89776621  0.52866642    -0.72100
O1521       O  0.14726111  0.94066797  0.55160120    -0.72000
O1522       O  0.14523544  0.85620327  0.49971821    -0.72200
V1523       V  0.14560779  0.88365947  0.62512001     1.35200
V1524       V  0.14614019  0.89818067  0.52799006     1.35200
C1525       C  0.14539992  0.83412487  0.54127862     0.77200
C1526       C  0.14674413  0.94772653  0.61067201     0.77300
C1527       C  0.08647813  0.88895928  0.58002084     0.77100
C1528       C  0.20525446  0.89329390  0.57591766     0.77100
O1529       O  0.34568946  0.40178924  0.52731623    -0.72000
O1530       O  0.43204840  0.40611721  0.73218754    -0.72200
O1531       O  0.38897868  0.36034337  0.50507948    -0.72100
O1532       O  0.38809334  0.44822788  0.50415358    -0.72100
O1533       O  0.40100911  0.44860396  0.60505147    -0.72100
O1534       O  0.39809930  0.35962947  0.60820324    -0.72100
O1535       O  0.44289370  0.40450078  0.58429118    -0.72000
O1536       O  0.35680676  0.40365921  0.62926390    -0.72200
V1537       V  0.38898902  0.40424559  0.50664637     1.35200
V1538       V  0.39959284  0.40411124  0.60476447     1.35200
C1539       C  0.33661760  0.40177523  0.58597945     0.77200
C1540       C  0.45220079  0.40555296  0.52572642     0.77300
C1541       C  0.39278168  0.34498352  0.55689994     0.77100
C1542       C  0.39403663  0.46354115  0.55419635     0.77100
O1543       O  0.19470842  0.39674287  0.71267882    -0.72000
O1544       O  0.10684192  0.38854491  0.74284084    -0.72200
O1545       O  0.15299166  0.34871718  0.73065530    -0.72100
O1546       O  0.14840334  0.43657132  0.72580589    -0.72100
O1547       O  0.14523483  0.43658026  0.62100673    -0.72100
O1548       O  0.14347205  0.34754426  0.62789352    -0.72100
O1549       O  0.10051110  0.39163268  0.63896106    -0.72000
O1550       O  0.18756272  0.39264633  0.60939278    -0.72200
V1551       V  0.15066117  0.39265023  0.72604698     1.35200
V1552       V  0.14423979  0.39206480  0.62627542     1.35200
C1553       C  0.20599863  0.39549071  0.65565307     0.77200
C1554       C  0.08871274  0.38939801  0.69555399     0.77300
C1555       C  0.14887026  0.33309430  0.68039184     0.77100
C1556       C  0.14660016  0.45165057  0.67283655     0.77100
O1557       O  0.34595723  0.14564465  0.57618174    -0.72000
O1558       O  0.43196800  0.15524030  0.61644543    -0.72200
O1559       O  0.38561512  0.19467515  0.59458119    -0.72100
O1560       O  0.39253093  0.10676564  0.59775979    -0.72100
O1561       O  0.40167181  0.10824570  0.74356457    -0.72100
O1562       O  0.40047833  0.19657477  0.74330861    -0.72100
O1563       O  0.44411816  0.15455911  0.76355502    -0.72000
O1564       O  0.35799266  0.15070422  0.72364324    -0.72200
V1565       V  0.38917968  0.15066228  0.59429752     1.35200
V1566       V  0.40083559  0.15243497  0.74547359     1.35200
C1567       C  0.33728593  0.14746942  0.51814862     0.77200
C1568       C  0.45274791  0.15596940  0.57185229     0.77300
C1569       C  0.39250656  0.21075664  0.54366866     0.77100
C1570       C  0.39834222  0.09260789  0.54621873     0.77100
O1571       O  0.19758876  0.14258540  0.65131070    -0.72000
O1572       O  0.11173257  0.14059426  0.60795550    -0.72200
O1573       O  0.15483092  0.18526929  0.63759724    -0.72100
O1574       O  0.15502306  0.09759559  0.62213545    -0.72100
O1575       O  0.14030031  0.09131537  0.72296911    -0.72100
O1576       O  0.14281147  0.18013075  0.73990041    -0.72100
O1577       O  0.09880345  0.13664161  0.71020374    -0.72000
O1578       O  0.18464684  0.13477468  0.75281521    -0.72200
V1579       V  0.15448162  0.14135319  0.63179001     1.35200
V1580       V  0.14189625  0.13579186  0.72962639     1.35200
C1581       C  0.20579535  0.13884134  0.70926550     0.77200
C1582       C  0.09061240  0.13888733  0.65186991     0.77300
C1583       C  0.14908048  0.19790683  0.69102205     0.77100
C1584       C  0.14752367  0.07933887  0.66942194     0.77100
O1585       O  0.64026284  0.34555257  0.75270043    -0.72000
O1586       O  0.64591908  0.43197479  0.54112185    -0.72200
O1587       O  0.59928702  0.38994018  0.52657679    -0.72100
O1588       O  0.68712685  0.38746110  0.76720964    -0.72100
O1589       O  0.68716278  0.40100711  0.66534933    -0.72100
O1590       O  0.59837241  0.39991779  0.67310421    -0.72100
O1591       O  0.64412503  0.44355705  0.68847450    -0.72000
O1592       O  0.64181315  0.35740090  0.64980841    -0.72200
V1593       V  0.64314027  0.38897693  0.51977273     1.35200
V1594       V  0.64280541  0.40025353  0.67112055     1.35200
C1595       C  0.64078359  0.33677460  0.69466813     0.77200
C1596       C  0.64568024  0.45246406  0.74627350     0.77300
C1597       C  0.58390160  0.39536936  0.72682835     0.77100
C1598       C  0.70225709  0.39368256  0.71488445     0.77100
O1599       O  0.64814483  0.19728557  0.57441472    -0.72000
O1600       O  0.64333367  0.11065749  0.53749345    -0.72200
O1601       O  0.60170665  0.15522432  0.55715372    -0.72100
O1602       O  0.68969003  0.15278143  0.55413731    -0.80100
O1603       O  0.68889498  0.14320267  0.65791173    -0.72100
O1604       O  0.59971967  0.14249097  0.65951947    -0.72100
O1605       O  0.64311297  0.09957275  0.64064928    -0.72000
O1606       O  0.64535781  0.18581222  0.67743740    -0.72200
V1607       V  0.64565653  0.15376117  0.55784899     1.35200
V1608       V  0.64433633  0.14293120  0.65692998     1.35200
C1609       C  0.64721153  0.20628753  0.63233602     0.77200
C1610       C  0.64277554  0.09034880  0.58301312     0.77300
C1611       C  0.58557383  0.14962243  0.60847570     0.77100
C1612       C  0.70438117  0.14780425  0.60526541     0.77100
O1613       O  0.89666476  0.33698060  0.68896591    -0.72000
O1614       O  0.89453932  0.42431638  0.64946928    -0.72200
O1615       O  0.93957712  0.38354355  0.66587825    -0.72100
O1616       O  0.85144110  0.37822856  0.67023502    -0.72100
O1617       O  0.85067615  0.38912848  0.52242619    -0.72100
O1618       O  0.93952110  0.39085043  0.51940557    -0.72100
O1619       O  0.89615423  0.43336658  0.50228228    -0.72000
O1620       O  0.89446985  0.34688763  0.54139895    -0.72200
V1621       V  0.89551568  0.38081341  0.67062524     1.35200
V1622       V  0.89517248  0.38987356  0.51938408     1.35200
C1623       C  0.89553637  0.32715034  0.49728563     0.77200
C1624       C  0.89561368  0.44368312  0.69476518     0.77300
C1625       C  0.95458864  0.38821306  0.71666884     0.77100
C1626       C  0.83603075  0.38357111  0.72128497     0.77100
O1627       O  0.89854059  0.18747200  0.62416570    -0.72000
O1628       O  0.89580148  0.10166324  0.67421207    -0.72200
O1629       O  0.94122349  0.14546455  0.65243202    -0.72100
O1630       O  0.85318399  0.14430591  0.64586266    -0.72100
O1631       O  0.85551110  0.13418718  0.54357034    -0.72100
O1632       O  0.94432007  0.13071264  0.55283714    -0.72100
O1633       O  0.89587897  0.08969106  0.57261650    -0.72000
O1634       O  0.90427822  0.17541826  0.52324119    -0.72200
V1635       V  0.89727605  0.14444702  0.64718805     1.35200
V1636       V  0.89992576  0.13269002  0.54991376     1.35200
C1637       C  0.90223829  0.19610389  0.56545869     0.77200
C1638       C  0.89490365  0.08103909  0.63158227     0.77300
C1639       C  0.95791343  0.13798938  0.60440407     0.77100
C1640       C  0.83915712  0.13984618  0.59357805     0.77100
O1641       O  0.69514414  0.64555280  0.50635895    -0.72000
O1642       O  0.60799771  0.64630235  0.72440224    -0.72200
O1643       O  0.65302857  0.69023267  0.49184953    -0.72100
O1644       O  0.64988059  0.60228400  0.48751516    -0.72100
O1645       O  0.63822393  0.59921695  0.59032563    -0.72100
O1646       O  0.64546907  0.68826420  0.59625832    -0.72100
O1647       O  0.59857202  0.64658361  0.57814906    -0.72000
O1648       O  0.68474051  0.64156978  0.60980806    -0.72200
V1649       V  0.65137084  0.64613578  0.49207074     1.35200
V1650       V  0.64188191  0.64387949  0.59167460     1.35200
C1651       C  0.70464719  0.64283187  0.56375178     0.77200
C1652       C  0.58847766  0.64713303  0.52127914     0.77300
C1653       C  0.64994733  0.70432160  0.54438065     0.77100
C1654       C  0.64333645  0.58557413  0.53751950     0.77100
O1655       O  0.84405273  0.63452288  0.68492318    -0.72000
O1656       O  0.93120426  0.63835030  0.71721132    -0.72200
O1657       O  0.88728298  0.68005541  0.69914913    -0.72100
O1658       O  0.88806177  0.59220157  0.70460166    -0.72100
O1659       O  0.89475715  0.59164668  0.60000425    -0.72100
O1660       O  0.90060461  0.68082601  0.59708656    -0.72100
O1661       O  0.94084853  0.63466938  0.61408190    -0.72000
O1662       O  0.85453775  0.63737496  0.58142152    -0.72200
V1663       V  0.88779221  0.63617801  0.69946835     1.35200
V1664       V  0.89748199  0.63616984  0.60001785     1.35200
C1665       C  0.83457055  0.63637001  0.62741030     0.77200
C1666       C  0.95086478  0.63685406  0.67078964     0.77300
C1667       C  0.89432668  0.69561567  0.64792091     0.77100
C1668       C  0.89145592  0.57688110  0.65370414     0.77100
O1669       O  0.69779014  0.89984330  0.57217038    -0.72000
O1670       O  0.61037794  0.89514531  0.60890191    -0.72200
O1671       O  0.65468557  0.85355135  0.58816935    -0.72100
O1672       O  0.65357950  0.94157583  0.59404986    -0.72100
O1673       O  0.64892044  0.94450394  0.73992673    -0.72100
O1674       O  0.64234337  0.85545432  0.73717486    -0.72100
O1675       O  0.60226143  0.90180059  0.50625547    -0.72000
O1676       O  0.68892001  0.89875435  0.71948428    -0.72200
V1677       V  0.65399863  0.89761370  0.58887173     1.35200
V1678       V  0.64579395  0.89997016  0.74011588     1.35200
C1679       C  0.70811816  0.89959464  0.51424803     0.77200
C1680       C  0.59144885  0.89868285  0.56355033     0.77300
C1681       C  0.64817425  0.83934447  0.53709607     0.77100
C1682       C  0.65102978  0.95813768  0.54319746     0.77100
O1683       O  0.84785034  0.88913155  0.64463862    -0.72000
O1684       O  0.93361716  0.89111016  0.59416863    -0.72200
O1685       O  0.88978722  0.84598300  0.61681476    -0.72100
O1686       O  0.89149260  0.93372322  0.62110540    -0.72100
O1687       O  0.90550449  0.93256310  0.72139802    -0.72100
O1688       O  0.90004400  0.84353401  0.71931799    -0.72100
O1689       O  0.94563493  0.88724015  0.69550209    -0.72000
O1690       O  0.86014716  0.88868064  0.74596252    -0.72200
V1691       V  0.89091454  0.88992521  0.62123865     1.35200
V1692       V  0.90268683  0.88803635  0.71866335     1.35200
C1693       C  0.83937228  0.88906039  0.70376783     0.77200
C1694       C  0.95420644  0.88863769  0.63647315     0.77300
C1695       C  0.89444571  0.82975225  0.66708097     0.77100
C1696       C  0.89832038  0.94822409  0.67158588     0.77100
C1697       C  0.78906527  0.91312502  0.68718866    -0.20500
C1698       C  0.80604276  0.89137237  0.72209034    -0.07100
C1699       C  0.79055176  0.87304006  0.52187834     0.13800
C1700       C  0.75881763  0.87708290  0.53527317    -0.20600
C1701       C  0.74196475  0.89851504  0.75015881    -0.07100
C1702       C  0.75737925  0.91719891  0.70077646     0.13700
C1703       C  0.74193461  0.94261151  0.66318170    -0.23900
H1704       H  0.80079436  0.92751169  0.64933414     0.15000
H1705       H  0.74693263  0.86257641  0.57272655     0.15100
C1706       C  0.80570556  0.84754583  0.55957953    -0.23900
H1707       H  0.74390992  0.93825672  0.61056894     0.05300
H1708       H  0.75399521  0.96539546  0.67237368     0.08500
H1709       H  0.71702492  0.94465964  0.67629379     0.08500
H1710       H  0.83087046  0.84625710  0.54864241     0.08500
H1711       H  0.79421426  0.82471758  0.54851864     0.08500
H1712       H  0.80256071  0.85120587  0.61225791     0.05300
C1713       C  0.91373293  0.78246463  0.61676038    -0.20500
C1714       C  0.89420826  0.79553436  0.66325721    -0.07100
C1715       C  0.87411316  0.77590798  0.70245279     0.13800
C1716       C  0.87446543  0.74356567  0.69519649    -0.20600
C1717       C  0.89433201  0.73019331  0.64934896    -0.07100
C1718       C  0.91429419  0.75004134  0.60969202     0.13700
C1719       C  0.93753930  0.73738322  0.56282045    -0.23900
H1720       H  0.92902233  0.79776967  0.58654013     0.15000
H1721       H  0.85895618  0.72859634  0.72559815     0.15100
C1722       C  0.85125313  0.78900355  0.74972054    -0.23900
H1723       H  0.95182790  0.75622061  0.53712421     0.05300
H1724       H  0.92539831  0.72358863  0.52567175     0.08500
H1725       H  0.95348341  0.72257894  0.59026167     0.08500
H1726       H  0.83541362  0.80424635  0.72294892     0.08500
H1727       H  0.86390348  0.80265241  0.78631866     0.08500
H1728       H  0.83682884  0.77038711  0.77578052     0.05300
C1729       C  0.63025606  0.75360097  0.50093323    -0.20500
C1730       C  0.65014896  0.73874377  0.54357757    -0.07100
C1731       C  0.66999027  0.75692560  0.58243553     0.13800
C1732       C  0.66867532  0.78960079  0.57915012    -0.20600
C1733       C  0.64845968  0.80465814  0.53694458    -0.07100
C1734       C  0.62891670  0.78622922  0.49748929     0.13700
C1735       C  0.60534207  0.80047096  0.45441597    -0.23900
H1736       H  0.61518917  0.73946210  0.47093362     0.15000
H1737       H  0.68393282  0.80351184  0.60913517     0.15100
C1738       C  0.69362832  0.74208979  0.62479361    -0.23900
H1739       H  0.59111470  0.78250281  0.42927721     0.05300
H1740       H  0.61692731  0.81575593  0.66720249     0.08500
H1741       H  0.58932275  0.81410750  0.48453062     0.08500
H1742       H  0.70959661  0.72835255  0.59463992     0.08500
H1743       H  0.68170380  0.72645725  0.66166633     0.08500
H1744       H  0.70787743  0.75979360  0.65061336     0.05300
C1745       C  0.78867739  0.61801916  0.56626101    -0.20500
C1746       C  0.80106364  0.63773786  0.61333274    -0.07100
C1747       C  0.78181408  0.65964050  0.64272172     0.13800
C1748       C  0.75050741  0.66094060  0.62492965    -0.20600
C1749       C  0.73812575  0.64124176  0.57784883    -0.07100
C1750       C  0.75734035  0.61931135  0.54852985     0.13700
C1751       C  0.74461401  0.59621912  0.75113872    -0.23900
H1752       H  0.80357497  0.60134403  0.54366612     0.15000
H1753       H  0.73560611  0.67760095  0.64756259     0.15100
C1754       C  0.79450328  0.68262906  0.69050366    -0.23900
H1755       H  0.76269229  0.58025616  0.73417847     0.05300
H1756       H  0.73582627  0.60863738  0.70804862     0.08500
H1757       H  0.72522193  0.58186132  0.77464447     0.08500
H1758       H  0.81400845  0.69697426  0.66737129     0.08500
H1759       H  0.80310226  0.67016050  0.73370366     0.08500
H1760       H  0.77641602  0.69861977  0.70730648     0.05300
C1761       C  0.87377094  0.99489691  0.62989909    -0.20500
C1762       C  0.89613092  0.98253277  0.67059288    -0.07100
C1763       C  0.91603914  0.00307888  0.70469464     0.13800
C1764       C  0.91419389  0.03551402  0.69372876    -0.20600
C1765       C  0.89315564  0.04750217  0.64928479    -0.07100
C1766       C  0.87198388  0.02694164  0.61896132     0.13700
C1767       C  0.84666510  0.03863562  0.57672353    -0.23900
H1768       H  0.85771366  0.97924649  0.60548795     0.15000
H1769       H  0.93013277  0.05146787  0.71761829     0.15100
C1770       C  0.94013345  0.99108000  0.74978168    -0.23900
H1771       H  0.83111491  0.01933711  0.55983224     0.05300
H1772       H  0.85685623  0.05108030  0.53301677     0.08500
H1773       H  0.83221508  0.05446084  0.60542898     0.08500
H1774       H  0.95623806  0.97602447  0.72304702     0.08500
H1775       H  0.92934535  0.97745109  0.53991789     0.08500
H1776       H  0.95421287  0.01043557  0.77083320     0.05300
C1777       C  0.91359138  0.53073107  0.70455484    -0.20500
C1778       C  0.89325753  0.54268071  0.65896209    -0.07100
C1779       C  0.87424228  0.52200163  0.62352590     0.13800
C1780       C  0.87606447  0.48965004  0.63483441    -0.20600
C1781       C  0.89602988  0.47771607  0.68154991    -0.07100
C1782       C  0.91525445  0.49859716  0.71652555     0.13700
C1783       C  0.93808402  0.48741158  0.76568481    -0.23900
H1784       H  0.92808019  0.54680990  0.73162964     0.15000
H1785       H  0.86120453  0.47363087  0.60848377     0.15100
C1786       C  0.85087529  0.53398686  0.57674244    -0.23900
H1787       H  0.95197434  0.50707338  0.78608100     0.05300
H1788       H  0.95454746  0.47148811  0.74293975     0.08500
H1789       H  0.92599011  0.47510859  0.55643715     0.08500
H1790       H  0.86296630  0.54818473  0.53757010     0.08500
H1791       H  0.83411486  0.54867280  0.60263880     0.08500
H1792       H  0.83749340  0.51463156  0.55401423     0.05300
C1793       C  0.91859594  0.27561063  0.73237633    -0.20500
C1794       C  0.89637818  0.29344894  0.51426317    -0.07100
C1795       C  0.87693552  0.27895640  0.56386839     0.13800
C1796       C  0.87989638  0.24732514  0.57906290    -0.20600
C1797       C  0.90187504  0.22955909  0.54722731    -0.07100
C1798       C  0.92217731  0.24403621  0.49957219     0.13700
C1799       C  0.94911885  0.22716323  0.72032113    -0.23900
H1800       H  0.93406267  0.28685263  0.69579716     0.15000
H1801       H  0.86445811  0.23626343  0.61601270     0.15100
C1802       C  0.85191107  0.29514087  0.60094408    -0.23900
H1803       H  0.96327617  0.24238398  0.68559642     0.05300
H1804       H  0.94064735  0.20656305  0.69393603     0.08500
H1805       H  0.96456751  0.21937009  0.75940902     0.08500
H1806       H  0.82887264  0.28369576  0.59146299     0.08500
H1807       H  0.85078807  0.32009047  0.58828342     0.08500
H1808       H  0.85596359  0.29297681  0.65366154     0.05300
C1809       C  0.66353708  0.04631791  0.52136185    -0.20500
C1810       C  0.64292104  0.05662303  0.56949323    -0.07100
C1811       C  0.62404259  0.03441892  0.60578270     0.13800
C1812       C  0.62716446  0.00259065  0.59500097    -0.20600
C1813       C  0.64838671  0.99221240  0.54841939    -0.07100
C1814       C  0.66666197  0.01430365  0.51068327     0.13700
C1815       C  0.69083726  0.00426122  0.46245327    -0.23900
H1816       H  0.67807946  0.06334421  0.49369006     0.15000
H1817       H  0.61282577  0.98555754  0.62316233     0.15100
C1818       C  0.59935758  0.04405445  0.65341699    -0.23900
H1819       H  0.70334374  0.02454901  0.43773042     0.05300
H1820       H  0.67981272  0.98983838  0.67520579     0.08500
H1821       H  0.70823559  0.99040751  0.48812082     0.08500
H1822       H  0.58285444  0.05872866  0.62732188     0.08500
H1823       H  0.60987818  0.05718809  0.69348934     0.08500
H1824       H  0.58590756  0.02363165  0.67538569     0.05300
C1825       C  0.79065498  0.16255005  0.63640288    -0.20500
C1826       C  0.80455085  0.14227149  0.59250644    -0.07100
C1827       C  0.78500358  0.12471149  0.55128805     0.13800
C1828       C  0.75245874  0.12714834  0.55676784    -0.20600
C1829       C  0.73879375  0.14658528  0.60217917    -0.07100
C1830       C  0.75815501  0.16518150  0.64118159     0.13700
C1831       C  0.74474766  0.18887555  0.68554565    -0.23900
H1832       H  0.80538322  0.17665717  0.66709078     0.15000
H1833       H  0.73744353  0.11342490  0.52590255     0.15100
C1834       C  0.79787628  0.10240286  0.75354484    -0.23900
H1835       H  0.76324549  0.20210135  0.71126105     0.05300
H1836       H  0.72904986  0.17709781  0.72249507     0.08500
H1837       H  0.73134751  0.20578259  0.65698584     0.08500
H1838       H  0.81098070  0.08448985  0.77900020     0.08500
H1839       H  0.81357783  0.11505971  0.71802335     0.08500
H1840       H  0.77914823  0.09033930  0.72628227     0.05300
C1841       C  0.66508091  0.53960710  0.48711837    -0.20500
C1842       C  0.64367409  0.55105894  0.53243133    -0.07100
C1843       C  0.62366035  0.52941453  0.56823622     0.13800
C1844       C  0.62586594  0.49725355  0.55744776    -0.20600
C1845       C  0.64654256  0.48613464  0.76057638    -0.07100
C1846       C  0.66689941  0.50769939  0.47593748     0.13700
C1847       C  0.69195079  0.49689167  0.68061047    -0.23900
H1848       H  0.68080046  0.55583947  0.46013646     0.15000
H1849       H  0.61022287  0.48073695  0.58391359     0.15100
C1850       C  0.59846506  0.53886914  0.61500055    -0.23900
H1851       H  0.70639061  0.51693041  0.40884470     0.05300
H1852       H  0.68148614  0.48444683  0.63950051     0.08500
H1853       H  0.70719769  0.48162142  0.45714670     0.08500
H1854       H  0.59596395  0.56428238  0.61664889     0.08500
H1855       H  0.60334538  0.52990975  0.66446018     0.08500
H1856       H  0.57562633  0.52865769  0.60016671     0.05300
C1857       C  0.74933418  0.37061577  0.50802628    -0.20500
C1858       C  0.73662368  0.39110592  0.71282895    -0.07100
C1859       C  0.75691120  0.40825713  0.66862161     0.13800
C1860       C  0.78924986  0.40500167  0.67255129    -0.20600
C1861       C  0.80180939  0.38517618  0.71926596    -0.07100
C1862       C  0.78153018  0.36736515  0.51157163     0.13700
C1863       C  0.79354479  0.34354560  0.55795008    -0.23900
H1864       H  0.73394807  0.35677761  0.54088263     0.15000
H1865       H  0.80495030  0.41837224  0.63950028     0.15100
C1866       C  0.74512410  0.43077083  0.61873773    -0.23900
H1867       H  0.77448262  0.33136625  0.58723877     0.05300
H1868       H  0.80969271  0.35495029  0.59182459     0.08500
H1869       H  0.80572460  0.32586299  0.52960893     0.08500
H1870       H  0.73239405  0.44921047  0.64302866     0.08500
H1871       H  0.72931854  0.41849700  0.58554300     0.08500
H1872       H  0.76442177  0.44219114  0.58886899     0.05300
C1873       C  0.66289260  0.29446565  0.63072907    -0.20500
C1874       C  0.64171063  0.30331308  0.67919021    -0.07100
C1875       C  0.62260689  0.28014054  0.71209035     0.13800
C1876       C  0.62549991  0.24871798  0.69613465    -0.20600
C1877       C  0.64673297  0.23980975  0.64769510    -0.07100
C1878       C  0.66602430  0.26305158  0.61508264     0.13700
C1879       C  0.69118866  0.25582807  0.56599277    -0.23900
H1880       H  0.67780526  0.31220810  0.60593373     0.15000
H1881       H  0.61056847  0.23097071  0.72081126     0.15100
C1882       C  0.59815485  0.28845858  0.76175807    -0.23900
H1883       H  0.68583593  0.26646792  0.51822084     0.05300
H1884       H  0.69427579  0.23058343  0.56002969     0.08500
H1885       H  0.71390586  0.26594554  0.58173899     0.08500
H1886       H  0.58180135  0.30481966  0.73961117     0.08500
H1887       H  0.60921883  0.29957077  0.80373643     0.08500
H1888       H  0.58437493  0.26752150  0.78037972     0.05300
C1889       C  0.04456893  0.11953161  0.58995760    -0.20500
C1890       C  0.05708908  0.13984425  0.63591772    -0.07100
C1891       C  0.03723601  0.16066742  0.66680725     0.13800
C1892       C  0.00541252  0.15974982  0.65385135    -0.20600
C1893       C  0.99242534  0.13872487  0.61008194    -0.07100
C1894       C  0.01239591  0.11859664  0.57674761     0.13700
C1895       C  0.99990496  0.09522009  0.52966197    -0.23900
H1896       H  0.05986306  0.10376443  0.56566803     0.15000
H1897       H  0.99046194  0.17567376  0.67853246     0.15100
C1898       C  0.04968490  0.18507858  0.71118563    -0.23900
H1899       H  0.01869331  0.08078363  0.75973626     0.05300
H1900       H  0.98902982  0.10741644  0.48859349     0.08500
H1901       H  0.98225296  0.07918694  0.55454107     0.08500
H1902       H  0.06738664  0.20001203  0.68369816     0.08500
H1903       H  0.06016207  0.17390723  0.75396789     0.08500
H1904       H  0.03117263  0.20027773  0.47944786     0.05300
C1905       C  0.49719351  0.13728318  0.63575793    -0.20500
C1906       C  0.48640544  0.15720722  0.58691417    -0.07100
C1907       C  0.50818992  0.17679955  0.55134728     0.13800
C1908       C  0.54008553  0.17419363  0.56151680    -0.20600
C1909       C  0.55119392  0.15275986  0.60701107    -0.07100
C1910       C  0.52933899  0.13478659  0.64638140     0.13700
C1911       C  0.53949138  0.11196744  0.69734997    -0.23900
H1912       H  0.48044419  0.12278713  0.66419677     0.15000
H1913       H  0.55660578  0.18901049  0.53310666     0.15100
C1914       C  0.49820669  0.20163873  0.75474806    -0.23900
H1915       H  0.51928297  0.09985050  0.72316380     0.05300
H1916       H  0.55358801  0.12419266  0.73377411     0.08500
H1917       H  0.55366173  0.09413756  0.67447901     0.08500
H1918       H  0.48413066  0.21795358  0.78285347     0.08500
H1919       H  0.48451408  0.19152976  0.71501389     0.08500
H1920       H  0.51836522  0.21525335  0.73213961     0.05300
C1921       C  0.28466072  0.12148485  0.53094670    -0.20500
C1922       C  0.30370319  0.14576963  0.75296216    -0.07100
C1923       C  0.29031944  0.16789643  0.71120383     0.13800
C1924       C  0.25846752  0.16464732  0.69722166    -0.20600
C1925       C  0.23937084  0.14037154  0.72528981    -0.07100
C1926       C  0.25275548  0.11836003  0.51721190     0.13700
C1927       C  0.23388923  0.09078324  0.54536680    -0.23900
H1928       H  0.29496069  0.10454859  0.56292006     0.15000
H1929       H  0.24820105  0.18163000  0.66530012     0.15100
C1930       C  0.30906251  0.19591285  0.68411241    -0.23900
H1931       H  0.24835247  0.07498952  0.57433276     0.05300
H1932       H  0.22344566  0.07716121  0.50569509     0.08500
H1933       H  0.21515329  0.09888653  0.57777715     0.08500
H1934       H  0.32824744  0.18844974  0.65207235     0.08500
H1935       H  0.31901954  0.20947651  0.72438659     0.08500
H1936       H  0.29454966  0.21164381  0.65511401     0.05300
C1937       C  0.03815180  0.40962778  0.66538947    -0.20500
C1938       C  0.05451705  0.38922387  0.70484412    -0.07100
C1939       C  0.03785626  0.36877176  0.74924644     0.13800
C1940       C  0.00521077  0.36999934  0.75428312    -0.20600
C1941       C  0.98892110  0.39006253  0.71386609    -0.07100
C1942       C  0.00559543  0.41022560  0.66900174     0.13700
C1943       C  0.98939647  0.43285845  0.62554288    -0.23900
H1944       H  0.05099391  0.42517303  0.63117335     0.15000
H1945       H  0.99214561  0.35434540  0.53767737     0.15100
C1946       C  0.05390022  0.34420369  0.53763306    -0.23900
H1947       H  0.00622612  0.44745698  0.59500211     0.05300
H1948       H  0.97535519  0.44862164  0.65494595     0.08500
H1949       H  0.97391073  0.42007297  0.59262599     0.08500
H1950       H  0.07064892  0.35512951  0.57078413     0.08500
H1951       H  0.06648167  0.32878413  0.75405965     0.08500
H1952       H  0.03704921  0.32930083  0.56748837     0.05300
C1953       C  0.16947125  0.24948232  0.64808285    -0.20500
C1954       C  0.15015460  0.23270017  0.69399851    -0.07100
C1955       C  0.13166660  0.24968016  0.73767320     0.13800
C1956       C  0.13189603  0.28240562  0.73192231    -0.20600
C1957       C  0.15004345  0.29873692  0.68399582    -0.07100
C1958       C  0.16988190  0.28217666  0.64301715     0.13700
C1959       C  0.19265631  0.29892371  0.59626899    -0.23900
H1960       H  0.18439435  0.23688924  0.61560627     0.15000
H1961       H  0.11745064  0.29541189  0.76460739     0.15100
C1962       C  0.11100586  0.23395066  0.78944306    -0.23900
H1963       H  0.20689500  0.28241352  0.56877889     0.05300
H1964       H  0.20870668  0.31438996  0.62349595     0.08500
H1965       H  0.18007683  0.31311256  0.56083687     0.08500
H1966       H  0.12504153  0.22000646  0.82207230     0.08500
H1967       H  0.09353807  0.21841824  0.76755272     0.08500
H1968       H  0.09848746  0.25094443  0.81921699     0.05300
C1969       C  0.53978111  0.42020263  0.52829918    -0.20500
C1970       C  0.55004162  0.39855012  0.73346541    -0.07100
C1971       C  0.52796905  0.38030997  0.69960270     0.13800
C1972       C  0.49602102  0.38393018  0.71260510    -0.20600
C1973       C  0.48582134  0.40497255  0.50910042    -0.07100
C1974       C  0.50802488  0.42376347  0.54126982     0.13700
C1975       C  0.49846480  0.44877242  0.58666631    -0.23900
H1976       H  0.55687316  0.43437785  0.55350088     0.15000
H1977       H  0.47898970  0.36945183  0.68797754     0.15100
C1978       C  0.53711933  0.35575585  0.65250985    -0.23900
H1979       H  0.51892566  0.46202487  0.60554025     0.05300
H1980       H  0.48492835  0.43857273  0.62895447     0.08500
H1981       H  0.48423145  0.46539866  0.55956135     0.08500
H1982       H  0.52726093  0.33263766  0.66987895     0.08500
H1983       H  0.56268837  0.35385901  0.64666162     0.08500
H1984       H  0.52755310  0.36117138  0.60427155     0.05300
C1985       C  0.37203570  0.25908321  0.58974813    -0.20500
C1986       C  0.39155707  0.24530693  0.54372218    -0.07100
C1987       C  0.41049224  0.26487253  0.50115600     0.13800
C1988       C  0.41051568  0.29722962  0.50814568    -0.20600
C1989       C  0.39191667  0.31075986  0.55556388    -0.07100
C1990       C  0.37174614  0.29156060  0.59595452     0.13700
C1991       C  0.34866556  0.30428062  0.64383421    -0.23900
H1992       H  0.35689112  0.24438386  0.62145872     0.15000
H1993       H  0.42524827  0.31224482  0.47615732     0.15100
C1994       C  0.43132994  0.25227300  0.44904553    -0.23900
H1995       H  0.35308995  0.29503707  0.69322936     0.05300
H1996       H  0.32466959  0.29658312  0.63080117     0.08500
H1997       H  0.34946934  0.33007602  0.64508943     0.08500
H1998       H  0.41763894  0.23871277  0.66461481     0.08500
H1999       H  0.44831543  0.23695491  0.47097107     0.08500
H2000       H  0.44447747  0.27110674  0.42087621     0.05300
C2001       C  0.29213977  0.41914449  0.65210907    -0.20500
C2002       C  0.30326377  0.39957182  0.60393334    -0.07100
C2003       C  0.28260715  0.37782040  0.57525892     0.13800
C2004       C  0.25109543  0.37682601  0.59437692    -0.20600
C2005       C  0.23981073  0.39663822  0.64192161    -0.07100
C2006       C  0.26053644  0.41807180  0.67136534     0.13700
C2007       C  0.24934138  0.44079128  0.72057184    -0.23900
H2008       H  0.30821199  0.43566904  0.67405653     0.15000
H2009       H  0.23504918  0.36057051  0.57164691     0.15100
C2010       C  0.29371407  0.35491493  0.77647070    -0.23900
H2011       H  0.26864686  0.45651059  0.73680104     0.05300
H2012       H  0.23923497  0.42807473  0.76393062     0.08500
H2013       H  0.23130589  0.45544645  0.69923358     0.08500
H2014       H  0.31206825  0.34060733  0.79764484     0.08500
H2015       H  0.30331760  0.36737437  0.73236582     0.08500
H2016       H  0.27446807  0.33884436  0.76127795     0.05300
C2017       C  0.12792407  0.99124435  0.67783071    -0.20500
C2018       C  0.14831324  0.98092447  0.62922543    -0.07100
C2019       C  0.16961616  0.00266503  0.59794320     0.13800
C2020       C  0.16901529  0.03418453  0.61384073    -0.20600
C2021       C  0.14798648  0.04497090  0.66059831    -0.07100
C2022       C  0.12736817  0.02304267  0.69379264     0.13700
C2023       C  0.10378413  0.03304159  0.74358454    -0.23900
H2024       H  0.11174573  0.97448293  0.70206413     0.15000
H2025       H  0.18498857  0.05066456  0.58871517     0.15100
C2026       C  0.19376545  0.99277939  0.54897010    -0.23900
H2027       H  0.08897757  0.01297155  0.76307187     0.05300
H2028       H  0.08828241  0.05022124  0.72138225     0.08500
H2029       H  0.11581570  0.04374541  0.78492624     0.08500
H2030       H  0.18237402  0.98350513  0.50548604     0.08500
H2031       H  0.20817950  0.97457165  0.57093855     0.08500
H2032       H  0.20965421  0.01261465  0.53242828     0.05300
C2033       C  0.03842517  0.86559659  0.63142900    -0.20500
C2034       C  0.05192915  0.88726321  0.58576480    -0.07100
C2035       C  0.03251601  0.90803271  0.55295921     0.13800
C2036       C  0.00040099  0.90742022  0.56907198    -0.20600
C2037       C  0.98750334  0.88697079  0.61772290    -0.07100
C2038       C  0.00663241  0.86519659  0.64796990     0.13700
C2039       C  0.99366889  0.84094453  0.69674012    -0.23900
H2040       H  0.05307793  0.84919505  0.65573568     0.15000
H2041       H  0.98547507  0.92371794  0.54524170     0.15100
C2042       C  0.04555325  0.93178829  0.50352877    -0.23900
H2043       H  0.97437258  0.82705744  0.42541592     0.05300
H2044       H  0.01170338  0.82465586  0.71224148     0.08500
H2045       H  0.98483818  0.85227102  0.74085422     0.08500
H2046       H  0.05651330  0.91982945  0.46229342     0.08500
H2047       H  0.02708442  0.94649060  0.48385401     0.08500
H2048       H  0.06311291  0.94725502  0.77558497     0.05300
C2049       C  0.16310657  0.53871592  0.64135581    -0.20500
C2050       C  0.14343430  0.55121693  0.68875277    -0.07100
C2051       C  0.12363718  0.53071203  0.72761438     0.13800
C2052       C  0.12480126  0.49849019  0.71935104    -0.20600
C2053       C  0.14500494  0.48597070  0.67342259    -0.07100
C2054       C  0.16427465  0.50627031  0.63344601     0.13700
C2055       C  0.18714887  0.49386433  0.58493742    -0.23900
H2056       H  0.17816780  0.55436931  0.61146323     0.15000
H2057       H  0.11000738  0.48276774  0.74971281     0.15100
C2058       C  0.10075237  0.54231641  0.52732419    -0.23900
H2059       H  0.20071769  0.51298302  0.55851682     0.05300
H2060       H  0.17461828  0.47989780  0.54873224     0.08500
H2061       H  0.20378952  0.47887316  0.61001258     0.08500
H2062       H  0.08488517  0.55871494  0.50411696     0.08500
H2063       H  0.11316600  0.55429008  0.56653893     0.08500
H2064       H  0.08618317  0.52294550  0.55042612     0.05300
C2065       C  0.03193290  0.65867511  0.72984820    -0.20500
C2066       C  0.05004219  0.63766711  0.69627658    -0.07100
C2067       C  0.03539020  0.61576242  0.65564734     0.13800
C2068       C  0.00293128  0.61593045  0.64869883    -0.20600
C2069       C  0.98480786  0.63729540  0.68165268    -0.07100
C2070       C  0.99962695  0.65929974  0.72169908     0.13700
C2071       C  0.98200301  0.68496464  0.50210358    -0.23900
H2072       H  0.04336120  0.67559495  0.51048644     0.15000
H2073       H  0.99157136  0.59914475  0.61769944     0.15100
C2074       C  0.05358329  0.59142778  0.62155421    -0.23900
H2075       H  0.99759469  0.70110562  0.52893248     0.05300
H2076       H  0.96406281  0.67493294  0.53667656     0.08500
H2077       H  0.97061705  0.69873171  0.46375949     0.08500
H2078       H  0.06535282  0.57672984  0.65751845     0.08500
H2079       H  0.07140257  0.60262252  0.58828662     0.08500
H2080       H  0.03831537  0.57592182  0.59257794     0.05300
C2081       C  0.12164568  0.78075412  0.55409075    -0.20500
C2082       C  0.14384839  0.80088342  0.52187022    -0.07100
C2083       C  0.16364857  0.78844715  0.47349488     0.13800
C2084       C  0.16115433  0.75650997  0.46030855    -0.20600
C2085       C  0.13953848  0.73643016  0.49371020    -0.07100
C2086       C  0.11880906  0.74889576  0.53980402     0.13700
C2087       C  0.09249956  0.72921446  0.57128738    -0.23900
H2088       H  0.10602039  0.79017017  0.59006887     0.15000
H2089       H  0.17704275  0.74694944  0.67509543     0.15100
C2090       C  0.18901629  0.80712184  0.43708633    -0.23900
H2091       H  0.07766279  0.74309342  0.60361915     0.05300
H2092       H  0.10155474  0.70994374  0.60091459     0.08500
H2093       H  0.07754298  0.71935585  0.53316301     0.08500
H2094       H  0.21199330  0.79823302  0.45039925     0.08500
H2095       H  0.18864633  0.83216224  0.69711083     0.08500
H2096       H  0.18659587  0.80410017  0.63446422     0.05300
C2097       C  0.42274554  0.01127613  0.59055149    -0.20500
C2098       C  0.40110459  0.99297481  0.55665945    -0.07100
C2099       C  0.37940402  0.00774191  0.51702399     0.13800
C2100       C  0.38006740  0.04044799  0.51182615    -0.20600
C2101       C  0.40095497  0.05857325  0.54761678    -0.07100
C2102       C  0.42291358  0.04391719  0.58660137     0.13700
C2103       C  0.44690875  0.06261135  0.62302347    -0.23900
H2104       H  0.43933833  0.99992477  0.62108731     0.15000
H2105       H  0.36304630  0.05200194  0.73239542     0.15100
C2106       C  0.35380842  0.98940594  0.73469464    -0.23900
H2107       H  0.46283013  0.04736271  0.64967415     0.05300
H2108       H  0.43527575  0.07732511  0.65893455     0.08500
H2109       H  0.46120768  0.07774509  0.58840813     0.08500
H2110       H  0.33976175  0.97549298  0.77181213     0.08500
H2111       H  0.36399072  0.97358666  0.69921015     0.08500
H2112       H  0.33790255  0.00482117  0.70842773     0.05300
C2113       C  0.50823695  0.88222140  0.62740028    -0.20500
C2114       C  0.49231527  0.90401474  0.59062226    -0.07100
C2115       C  0.50915357  0.92495128  0.54760574     0.13800
C2116       C  0.54155554  0.92287686  0.54094604    -0.20600
C2117       C  0.55752439  0.90040951  0.57611600    -0.07100
C2118       C  0.54063651  0.87977837  0.61977582     0.13700
C2119       C  0.55615552  0.85373019  0.65461065    -0.23900
H2120       H  0.49504301  0.86600843  0.65967332     0.15000
H2121       H  0.55467496  0.93870334  0.75779874     0.15100
C2122       C  0.49333550  0.94995425  0.75966294    -0.23900
H2123       H  0.53923088  0.83896535  0.68458180     0.05300
H2124       H  0.57392692  0.86337202  0.68723394     0.08500
H2125       H  0.56741352  0.83865535  0.61865382     0.08500
H2126       H  0.48030988  0.96488915  0.54358183     0.08500
H2127       H  0.47700260  0.93929194  0.72503913     0.08500
H2128       H  0.51035885  0.96530558  0.73123958     0.05300
C2129       C  0.29099610  0.87806146  0.54913068    -0.20500
C2130       C  0.30500931  0.89857488  0.59278972    -0.07100
C2131       C  0.28583306  0.91802588  0.62965033     0.13800
C2132       C  0.25334291  0.91608254  0.62231643    -0.20600
C2133       C  0.23960374  0.89567345  0.57827723    -0.07100
C2134       C  0.25867262  0.87635099  0.54169834     0.13700
C2135       C  0.24494494  0.85298557  0.74670985    -0.23900
H2136       H  0.30542378  0.86296071  0.52087503     0.15000
H2137       H  0.23851733  0.93069304  0.65086643     0.15100
C2138       C  0.29932057  0.94183209  0.67435180    -0.23900
H2139       H  0.26304792  0.83928575  0.72230769     0.05300
H2140       H  0.23193070  0.86515542  0.70875142     0.08500
H2141       H  0.22910772  0.83659730  0.77547824     0.08500
H2142       H  0.31533109  0.95820032  0.64598053     0.08500
H2143       H  0.31209148  0.93016731  0.71348552     0.08500
H2144       H  0.28098178  0.95564497  0.69764798     0.05300
C2145       C  0.40984390  0.55084254  0.57614254    -0.20500
C2146       C  0.39082650  0.56303588  0.77861867    -0.07100
C2147       C  0.37025457  0.54274876  0.74575176     0.13800
C2148       C  0.37116759  0.51057272  0.75778625    -0.20600
C2149       C  0.39190166  0.49798496  0.55165621    -0.07100
C2150       C  0.41061825  0.51851395  0.58853589     0.13700
C2151       C  0.43234865  0.50676838  0.63888365    -0.23900
H2152       H  0.42495469  0.56663519  0.60247294     0.15000
H2153       H  0.35588282  0.49501867  0.73127316     0.15100
C2154       C  0.34662702  0.55481715  0.69933795    -0.23900
H2155       H  0.44505275  0.52616073  0.66297073     0.05300
H2156       H  0.44972670  0.49197993  0.61600910     0.08500
H2157       H  0.41908854  0.49284431  0.67677074     0.08500
H2158       H  0.35842413  0.56666599  0.65669354     0.08500
H2159       H  0.33157352  0.57148944  0.72433855     0.08500
H2160       H  0.33132853  0.53566702  0.68099531     0.05300
C2161       C  0.50564313  0.63201361  0.71456844    -0.20500
C2162       C  0.48968757  0.65501760  0.74776437    -0.07100
C2163       C  0.50664389  0.67582986  0.53735427     0.13800
C2164       C  0.53890977  0.67276048  0.54324863    -0.20600
C2165       C  0.55470380  0.64950093  0.51086859    -0.07100
C2166       C  0.53780413  0.62853804  0.72172331     0.13700
C2167       C  0.55308337  0.60133626  0.69119016    -0.23900
H2168       H  0.49263596  0.61579998  0.68498007     0.15000
H2169       H  0.55198187  0.68864785  0.57346955     0.15100
C2170       C  0.49126953  0.70186249  0.57228680    -0.23900
H2171       H  0.53625372  0.58670528  0.66391873     0.05300
H2172       H  0.56316819  0.58640150  0.72938474     0.08500
H2173       H  0.57187666  0.60980548  0.65696545     0.08500
H2174       H  0.47458361  0.69214720  0.61010155     0.08500
H2175       H  0.47885610  0.71661222  0.53715618     0.08500
H2176       H  0.50854936  0.71712500  0.59693221     0.05300
C2177       C  0.28597983  0.63138584  0.51817335    -0.20500
C2178       C  0.30259071  0.65222479  0.72569876    -0.07100
C2179       C  0.28603153  0.67169689  0.68379168     0.13800
C2180       C  0.25333788  0.66939140  0.68500571    -0.20600
C2181       C  0.23661020  0.64843282  0.72757325    -0.07100
C2182       C  0.25321486  0.62895125  0.51920959     0.13700
C2183       C  0.23684533  0.60441005  0.56269782    -0.23900
H2184       H  0.29882076  0.61646007  0.55019533     0.15000
H2185       H  0.24068539  0.68437494  0.65277501     0.15100
C2186       C  0.30248050  0.69584935  0.63963010    -0.23900
H2187       H  0.25364291  0.59018994  0.58940711     0.05300
H2188       H  0.22230850  0.58841281  0.53329786     0.08500
H2189       H  0.22188865  0.61551890  0.59916272     0.08500
H2190       H  0.31782981  0.68445342  0.60471539     0.08500
H2191       H  0.31672082  0.71226305  0.66832013     0.08500
H2192       H  0.28581892  0.70958350  0.61146387     0.05300
C2193       C  0.37769728  0.79822292  0.69242857    -0.20500
C2194       C  0.39814344  0.80914168  0.64195705    -0.07100
C2195       C  0.41927904  0.78850681  0.61419025     0.13800
C2196       C  0.41886832  0.75733172  0.63670915    -0.20600
C2197       C  0.39825145  0.74634073  0.68689881    -0.07100
C2198       C  0.37747327  0.76716570  0.71544543     0.13700
C2199       C  0.35443600  0.75686594  0.76889295    -0.23900
H2200       H  0.36176040  0.81420689  0.71414550     0.15000
H2201       H  0.43487639  0.74140277  0.61510375     0.15100
C2202       C  0.44315448  0.79939954  0.56291460    -0.23900
H2203       H  0.33932701  0.77605326  0.78351771     0.05300
H2204       H  0.36686930  0.74914989  0.81237298     0.08500
H2205       H  0.33916231  0.73729153  0.75283078     0.08500
H2206       H  0.45816992  0.81864704  0.58171837     0.08500
H2207       H  0.43144753  0.80775779  0.51892983     0.08500
H2208       H  0.45842620  0.78032735  0.54834396     0.05300
O2209       O  0.39316481  0.70320845  0.01325023    -0.72000
O2210       O  0.39506592  0.61665241  0.80698940    -0.72200
O2211       O  0.43827979  0.66329524  0.78944511    -0.72100
O2212       O  0.35022050  0.65623834  0.03111236    -0.72100
O2213       O  0.35386988  0.65146396  0.92687088    -0.72100
O2214       O  0.44209881  0.64774133  0.94037102    -0.72100
O2215       O  0.39354403  0.60644643  0.95438871    -0.72000
O2216       O  0.40230479  0.69280140  0.91237786    -0.72200
V2217       V  0.39430794  0.65974081  0.78341593     1.35200
V2218       V  0.39794550  0.64979439  0.93527567     1.35200
C2219       C  0.39791450  0.71278853  0.95526942     0.77200
C2220       C  0.39314156  0.59676652  0.01267035     0.77300
C2221       C  0.45527810  0.65569721  0.99199754     0.77100
C2222       C  0.33697547  0.65357746  0.97753495     0.77100
O2223       O  0.40143964  0.85239589  0.81506975    -0.72000
O2224       O  0.39722772  0.93943676  0.77421661    -0.72200
O2225       O  0.44323510  0.89986577  0.79168756    -0.72100
O2226       O  0.35534699  0.89208825  0.79575739    -0.72100
O2227       O  0.35421743  0.90744247  0.89506375    -0.72100
O2228       O  0.44288793  0.90395832  0.89636294    -0.72100
O2229       O  0.40256271  0.94877100  0.87627896    -0.72000
O2230       O  0.39493736  0.86256961  0.91689169    -0.72200
V2231       V  0.39928549  0.89605457  0.79595992     1.35200
V2232       V  0.39861357  0.90549963  0.89436759     1.35200
C2233       C  0.39826761  0.84271267  0.87344359     0.77200
C2234       C  0.40014870  0.95895602  0.81892563     0.77300
C2235       C  0.45808698  0.90271814  0.84324995     0.77100
C2236       C  0.33960917  0.89963515  0.84500391     0.77100
O2237       O  0.14311699  0.69208216  0.92559551    -0.72000
O2238       O  0.14831356  0.60452434  0.89967191    -0.72200
O2239       O  0.10188451  0.64429994  0.90341849    -0.72100
O2240       O  0.18946559  0.65209945  0.92017154    -0.72100
O2241       O  0.18453942  0.64072618  0.77312351    -0.72100
O2242       O  0.09625391  0.63876944  0.75792383    -0.72100
O2243       O  0.14026880  0.59635360  0.75303343    -0.72000
O2244       O  0.13981444  0.68321543  0.77959941    -0.72200
V2245       V  0.14561319  0.64816986  0.91414185     1.35200
V2246       V  0.14039343  0.63994622  0.76393840     1.35200
C2247       C  0.14053975  0.70246920  0.73240717     0.77200
C2248       C  0.14402902  0.58546717  0.94720502     0.77300
C2249       C  0.08414632  0.64015757  0.95276559     0.77100
C2250       C  0.20209024  0.64691303  0.97375156     0.77100
O2251       O  0.14557977  0.84101485  0.85080166    -0.72000
O2252       O  0.14518533  0.92578430  0.90286546    -0.72200
O2253       O  0.10181210  0.88123325  0.87891061    -0.72100
O2254       O  0.18964837  0.88564079  0.87673079    -0.72100
O2255       O  0.19075106  0.89916168  0.77461187    -0.72100
O2256       O  0.10144893  0.89763848  0.77874211    -0.72100
O2257       O  0.14720088  0.94061221  0.80156167    -0.72000
O2258       O  0.14526025  0.85611851  0.74988350    -0.72200
V2259       V  0.14561648  0.88363720  0.87521340     1.35200
V2260       V  0.14612405  0.89810836  0.77805295     1.35200
C2261       C  0.14539146  0.83406069  0.79149556     0.77200
C2262       C  0.14673688  0.94769774  0.86061897     0.77300
C2263       C  0.08647453  0.88890586  0.83015777     0.77100
C2264       C  0.20525507  0.89325041  0.82592965     0.77100
O2265       O  0.34568284  0.40192835  0.77760433    -0.72000
O2266       O  0.43202329  0.40611337  0.98205951    -0.72200
O2267       O  0.38885298  0.36037471  0.75517255    -0.72100
O2268       O  0.38820426  0.44825465  0.75439193    -0.72100
O2269       O  0.40097807  0.44857168  0.85538087    -0.72100
O2270       O  0.39821583  0.35959717  0.85819441    -0.72100
O2271       O  0.44292576  0.40454834  0.83435549    -0.72000
O2272       O  0.35684557  0.40352998  0.87955428    -0.72200
V2273       V  0.38897959  0.40427326  0.75683120     1.35200
V2274       V  0.39963016  0.40407709  0.85493221     1.35200
C2275       C  0.33663287  0.40177376  0.83629579     0.77200
C2276       C  0.45220999  0.40552098  0.77577506     0.77300
C2277       C  0.39278645  0.34498805  0.80689422     0.77100
C2278       C  0.39408737  0.46353621  0.80450119     0.77100
O2279       O  0.19464566  0.39676454  0.96279049    -0.72000
O2280       O  0.10676866  0.38855478  0.99287823    -0.72200
O2281       O  0.15294889  0.34873010  0.98083153    -0.72100
O2282       O  0.14831553  0.43658288  0.97580692    -0.72100
O2283       O  0.14520058  0.43654840  0.87100074    -0.72100
O2284       O  0.14342988  0.34751707  0.87807340    -0.72100
O2285       O  0.10047242  0.39162011  0.88898464    -0.72000
O2286       O  0.18753130  0.39259987  0.85951418    -0.72200
V2287       V  0.15059514  0.39266225  0.97613177     1.35200
V2288       V  0.14420217  0.39203385  0.87635654     1.35200
C2289       C  0.20595669  0.39548295  0.90578420     0.77200
C2290       C  0.08865579  0.38942194  0.94556292     0.77300
C2291       C  0.14884382  0.33308893  0.93058715     0.77100
C2292       C  0.14652638  0.45164083  0.92280856     0.77100
O2293       O  0.34601052  0.14565426  0.82620438    -0.72000
O2294       O  0.43205823  0.15523351  0.86621289    -0.72200
O2295       O  0.38569103  0.19468674  0.84449005    -0.72100
O2296       O  0.39259282  0.10677431  0.84763222    -0.72100
O2297       O  0.40169488  0.10825353  0.99365097    -0.72100
O2298       O  0.40049897  0.19657135  0.99347406    -0.72100
O2299       O  0.44411722  0.15456931  0.01371396    -0.72000
O2300       O  0.35801709  0.15072197  0.97370452    -0.72200
V2301       V  0.38924985  0.15067052  0.84418851     1.35200
V2302       V  0.40084948  0.15244028  0.99559244     1.35200
C2303       C  0.33729466  0.14749544  0.76820447     0.77200
C2304       C  0.45281457  0.15593039  0.82157223     0.77300
C2305       C  0.39256092  0.21077349  0.79357224     0.77100
C2306       C  0.39833533  0.09261434  0.79606377     0.77100
O2307       O  0.19761086  0.14260385  0.90119927    -0.72000
O2308       O  0.11176709  0.14059678  0.85783811    -0.72200
O2309       O  0.15484381  0.18527985  0.88749158    -0.72100
O2310       O  0.15504910  0.09758921  0.87202314    -0.72100
O2311       O  0.14026634  0.09130907  0.97281938    -0.72100
O2312       O  0.14288329  0.18011840  0.98981922    -0.72100
O2313       O  0.09883328  0.13669821  0.96009093    -0.72000
O2314       O  0.18466890  0.13471986  0.00268568    -0.72200
V2315       V  0.15450712  0.14135685  0.88167513     1.35200
V2316       V  0.14191966  0.13578651  0.97950760     1.35200
C2317       C  0.20581643  0.13883283  0.95914529     0.77200
C2318       C  0.09064960  0.13893192  0.90175274     0.77300
C2319       C  0.14911968  0.19790531  0.94094607     0.77100
C2320       C  0.14750948  0.07932938  0.91928759     0.77100
O2321       O  0.64025037  0.34560849  0.00234862    -0.72000
O2322       O  0.64594505  0.43192739  0.79122803    -0.72200
O2323       O  0.59932681  0.38988694  0.77675131    -0.72100
O2324       O  0.68709315  0.38755335  0.01682498    -0.72100
O2325       O  0.68710541  0.40104395  0.91493611    -0.72100
O2326       O  0.59831511  0.40001200  0.92283800    -0.72100
O2327       O  0.64410204  0.44362772  0.93815902    -0.72000
O2328       O  0.64171900  0.35744338  0.89945729    -0.72200
V2329       V  0.64317992  0.38893008  0.76994132     1.35200
V2330       V  0.64274711  0.40031519  0.92078229     1.35200
C2331       C  0.64072469  0.33681509  0.94432357     0.77200
C2332       C  0.64565705  0.45254145  0.99595966     0.77300
C2333       C  0.58385856  0.39543683  0.97657008     0.77100
C2334       C  0.70221040  0.39374406  0.96447239     0.77100
O2335       O  0.64813442  0.19721742  0.82450563    -0.72000
O2336       O  0.64355236  0.11057110  0.78763440    -0.72200
O2337       O  0.60181423  0.15504187  0.80708702    -0.72100
O2338       O  0.68979780  0.15281244  0.80440830    -0.80100
O2339       O  0.68894503  0.14310590  0.90814088    -0.72100
O2340       O  0.59976736  0.14247519  0.90952898    -0.72100
O2341       O  0.64311855  0.09950964  0.89080888    -0.72000
O2342       O  0.64543132  0.18576982  0.92754200    -0.72200
V2343       V  0.64576306  0.15368536  0.80796378     1.35200
V2344       V  0.64438322  0.14287611  0.90705575     1.35200
C2345       C  0.64722752  0.20623682  0.88241804     0.77200
C2346       C  0.64287997  0.09026970  0.83317976     0.77300
C2347       C  0.58565079  0.14951042  0.85839076     0.77100
C2348       C  0.70445947  0.14778351  0.85554874     0.77100
O2349       O  0.89676050  0.33705471  0.93882166    -0.72000
O2350       O  0.89436501  0.42438497  0.89926731    -0.72200
O2351       O  0.93952822  0.38377536  0.91558933    -0.72100
O2352       O  0.85139840  0.37816143  0.92009864    -0.72100
O2353       O  0.85069764  0.38898666  0.77253190    -0.72100
O2354       O  0.93952951  0.39085353  0.76954108    -0.72100
O2355       O  0.89607620  0.43328251  0.75236520    -0.72000
O2356       O  0.89454217  0.34681832  0.79152394    -0.72200
V2357       V  0.89547095  0.38088822  0.92042728     1.35200
V2358       V  0.89518207  0.38979986  0.76949306     1.35200
C2359       C  0.89552728  0.32708556  0.74739414     0.77200
C2360       C  0.89555120  0.44376134  0.94454217     0.77300
C2361       C  0.95453991  0.38838503  0.96639928     0.77100
C2362       C  0.83597936  0.38359279  0.97108560     0.77100
O2363       O  0.89866791  0.18747101  0.87405820    -0.72000
O2364       O  0.89587089  0.10171959  0.92430935    -0.72200
O2365       O  0.94130380  0.14546780  0.90239076    -0.72100
O2366       O  0.85327682  0.14439046  0.89584336    -0.72100
O2367       O  0.85556795  0.13416984  0.79359488    -0.72100
O2368       O  0.94437733  0.13067799  0.80281539    -0.72100
O2369       O  0.89593241  0.08965520  0.82275562    -0.72000
O2370       O  0.90434645  0.17537073  0.77314758    -0.72200
V2371       V  0.89736394  0.14447582  0.89716541     1.35200
V2372       V  0.89998488  0.13265367  0.79992067     1.35200
C2373       C  0.90234525  0.19607305  0.81534084     0.77200
C2374       C  0.89499147  0.08106085  0.88176252     0.77300
C2375       C  0.95797984  0.13798866  0.85435136     0.77100
C2376       C  0.83923522  0.13991046  0.84358592     0.77100
O2377       O  0.69517014  0.64543679  0.75646028    -0.72000
O2378       O  0.60793440  0.64646133  0.97440391    -0.72200
O2379       O  0.65304168  0.69010452  0.74185172    -0.72100
O2380       O  0.64992651  0.60214435  0.73769192    -0.72100
O2381       O  0.63825128  0.59913362  0.84049894    -0.72100
O2382       O  0.64545849  0.68817397  0.84625519    -0.72100
O2383       O  0.59857178  0.64645662  0.82814613    -0.72000
O2384       O  0.68475185  0.64150551  0.85990813    -0.72200
V2385       V  0.65139843  0.64600092  0.74214197     1.35200
V2386       V  0.64188791  0.64378825  0.84174031     1.35200
C2387       C  0.70466716  0.64274771  0.81386161     0.77200
C2388       C  0.58849380  0.64699167  0.77125379     0.77300
C2389       C  0.64995588  0.70421250  0.79436220     0.77100
C2390       C  0.64337943  0.58546464  0.78773989     0.77100
O2391       O  0.84410014  0.63459801  0.93493936    -0.72000
O2392       O  0.93124123  0.63843015  0.96719614    -0.72200
O2393       O  0.88730159  0.68014698  0.94919790    -0.72100
O2394       O  0.88812860  0.59226836  0.95451465    -0.72100
O2395       O  0.89489677  0.59176219  0.84992741    -0.72100
O2396       O  0.90052310  0.68093561  0.84708301    -0.72100
O2397       O  0.94088562  0.63486989  0.86403636    -0.72000
O2398       O  0.85456606  0.63739785  0.83142689    -0.72200
V2399       V  0.88783512  0.63625729  0.94945797     1.35200
V2400       V  0.89751439  0.63628309  0.84999465     1.35200
C2401       C  0.83460971  0.63641447  0.87743357     0.77200
C2402       C  0.95089703  0.63698118  0.92075860     0.77300
C2403       C  0.89426394  0.69571662  0.89793545     0.77100
C2404       C  0.89158154  0.57697279  0.90359354     0.77100
O2405       O  0.69785812  0.89977533  0.82249281    -0.72000
O2406       O  0.61041194  0.89488909  0.85904861    -0.72200
O2407       O  0.65484184  0.85340358  0.83826632    -0.72100
O2408       O  0.65353565  0.94142442  0.84439534    -0.72100
O2409       O  0.64882097  0.94462684  0.98964947    -0.72100
O2410       O  0.64224304  0.85556399  0.98708754    -0.72100
O2411       O  0.60235488  0.90168650  0.75641817    -0.72000
O2412       O  0.68882156  0.89886415  0.96923131    -0.72200
V2413       V  0.65405269  0.89745963  0.83910961     1.35200
V2414       V  0.64570037  0.90008643  0.98992555     1.35200
C2415       C  0.70821002  0.89951536  0.76458563     0.77200
C2416       C  0.59150453  0.89849856  0.81367488     0.77300
C2417       C  0.64832899  0.83922742  0.78715621     0.77100
C2418       C  0.65105025  0.95801029  0.79354845     0.77100
O2419       O  0.84785171  0.88935683  0.89470387    -0.72000
O2420       O  0.93362294  0.89120026  0.84432076    -0.72200
O2421       O  0.88970813  0.84613975  0.86678007    -0.72100
O2422       O  0.89157382  0.93388681  0.87138069    -0.72100
O2423       O  0.90545343  0.93260645  0.97176786    -0.72100
O2424       O  0.90005652  0.84359948  0.96923294    -0.72100
O2425       O  0.94561665  0.88735024  0.94566736    -0.72000
O2426       O  0.86009769  0.88867236  0.99605296    -0.72200
V2427       V  0.89091699  0.89008389  0.87135523     1.35200
V2428       V  0.90265952  0.88809232  0.96879549     1.35200
C2429       C  0.83934039  0.88916273  0.95382166     0.77200
C2430       C  0.95420227  0.88871881  0.88664400     0.77300
C2431       C  0.89440812  0.82986550  0.91696802     0.77100
C2432       C  0.89834422  0.94831904  0.92197938     0.77100
C2433       C  0.78902158  0.91319671  0.93708321    -0.20500
C2434       C  0.80598903  0.89145801  0.97206442    -0.07100
C2435       C  0.79066006  0.87296337  0.77211286     0.13800
C2436       C  0.75894166  0.87704238  0.78564658    -0.20600
C2437       C  0.74187466  0.89856477  0.99987378    -0.07100
C2438       C  0.75732184  0.91725992  0.95056024     0.13700
C2439       C  0.74190269  0.94268972  0.91296315    -0.23900
H2440       H  0.80077171  0.92759226  0.89927406     0.15000
H2441       H  0.74708601  0.86257381  0.82320337     0.15100
C2442       C  0.80586100  0.84751082  0.80985419    -0.23900
H2443       H  0.74387716  0.93833849  0.86034961     0.05300
H2444       H  0.75398515  0.96546278  0.92215390     0.08500
H2445       H  0.71699726  0.94476357  0.92608100     0.08500
H2446       H  0.83099017  0.84613606  0.79860717     0.08500
H2447       H  0.79428371  0.82467693  0.79915725     0.08500
H2448       H  0.80287673  0.85129261  0.86251616     0.05300
C2449       C  0.91361039  0.78255649  0.86653749    -0.20500
C2450       C  0.89412820  0.79564828  0.91307877    -0.07100
C2451       C  0.87404704  0.77604328  0.95234831     0.13800
C2452       C  0.87438760  0.74369208  0.94516613    -0.20600
C2453       C  0.89423341  0.73029654  0.89930847    -0.07100
C2454       C  0.91416379  0.75012716  0.85954017     0.13700
C2455       C  0.93738607  0.73743844  0.81264516    -0.23900
H2456       H  0.92888103  0.79784649  0.83624416     0.15000
H2457       H  0.85889906  0.72873654  0.97564169     0.15100
C2458       C  0.85122103  0.78918456  0.99962536    -0.23900
H2459       H  0.95169737  0.75625984  0.78695365     0.05300
H2460       H  0.92522795  0.72366004  0.77549774     0.08500
H2461       H  0.95331357  0.72260177  0.84005496     0.08500
H2462       H  0.83545367  0.80451020  0.97286523     0.08500
H2463       H  0.86390654  0.80275910  0.03629227     0.08500
H2464       H  0.83671742  0.77059959  0.02558944     0.05300
C2465       C  0.63022847  0.75351925  0.75110861    -0.20500
C2466       C  0.65020467  0.73863614  0.79353976    -0.07100
C2467       C  0.67018024  0.75679251  0.83217125     0.13800
C2468       C  0.66895966  0.78947322  0.82879325    -0.20600
C2469       C  0.64862362  0.80455122  0.78689059    -0.07100
C2470       C  0.62891377  0.78615189  0.74772215     0.13700
C2471       C  0.60518615  0.80043290  0.70505921    -0.23900
H2472       H  0.61505436  0.73939824  0.72129949     0.15000
H2473       H  0.68433161  0.80337093  0.85856894     0.15100
C2474       C  0.69380104  0.74191312  0.87450569    -0.23900
H2475       H  0.59089618  0.78248358  0.68000865     0.05300
H2476       H  0.61716986  0.81578505  0.91672119     0.08500
H2477       H  0.58923950  0.81403305  0.73543575     0.08500
H2478       H  0.70961252  0.72797730  0.84441530     0.08500
H2479       H  0.68183643  0.72646187  0.91165288     0.08500
H2480       H  0.70822114  0.75960165  0.89999080     0.05300
C2481       C  0.78872721  0.61800808  0.81636764    -0.20500
C2482       C  0.80110318  0.63775795  0.86338545    -0.07100
C2483       C  0.78183888  0.65964982  0.89276668     0.13800
C2484       C  0.75052100  0.66090143  0.87502543    -0.20600
C2485       C  0.73815064  0.64118204  0.82796628    -0.07100
C2486       C  0.75738713  0.61926496  0.79865706     0.13700
C2487       C  0.74452997  0.59630949  0.00087021    -0.23900
H2488       H  0.80363997  0.60134459  0.79377759     0.15000
H2489       H  0.73560602  0.67754726  0.89766196     0.15100
C2490       C  0.79452398  0.68268688  0.94045788    -0.23900
H2491       H  0.76263539  0.58044284  0.98362794     0.05300
H2492       H  0.73559356  0.60873171  0.95793694     0.08500
H2493       H  0.72523528  0.58185731  0.02448744     0.08500
H2494       H  0.81397083  0.69707208  0.91721281     0.08500
H2495       H  0.80320299  0.67026219  0.98363408     0.08500
H2496       H  0.77641128  0.69863516  0.95732417     0.05300
C2497       C  0.87349552  0.99498680  0.88125878    -0.20500
C2498       C  0.89615468  0.98261039  0.92117434    -0.07100
C2499       C  0.91640833  0.00312706  0.95450617     0.13800
C2500       C  0.91461485  0.03555841  0.94343173    -0.20600
C2501       C  0.89327212  0.04755283  0.89965044    -0.07100
C2502       C  0.87175967  0.02702947  0.87021680     0.13700
C2503       C  0.84621317  0.03877809  0.82868690    -0.23900
H2504       H  0.85720162  0.97934184  0.85746029     0.15000
H2505       H  0.93080721  0.05149512  0.96668365     0.15100
C2506       C  0.94079337  0.99108207  0.99883928    -0.23900
H2507       H  0.83040217  0.01952818  0.81251106     0.05300
H2508       H  0.85621851  0.05102760  0.78457564     0.08500
H2509       H  0.83207882  0.05480358  0.85759694     0.08500
H2510       H  0.95666722  0.97597711  0.97162827     0.08500
H2511       H  0.92851458  0.97740891  0.79043874     0.08500
H2512       H  0.95507494  0.01041542  0.01944178     0.05300
C2513       C  0.91381492  0.53077396  0.95410610    -0.20500
C2514       C  0.89338929  0.54276893  0.90874914    -0.07100
C2515       C  0.87424512  0.52212770  0.87350092     0.13800
C2516       C  0.87601190  0.48977172  0.88478266    -0.20600
C2517       C  0.89603759  0.47779335  0.93131943    -0.07100
C2518       C  0.91540758  0.49863039  0.96608798     0.13700
C2519       C  0.93826610  0.48738696  0.01513150    -0.23900
H2520       H  0.92839649  0.54682420  0.98104967     0.15000
H2521       H  0.86106099  0.47378419  0.85856086     0.15100
C2522       C  0.85079181  0.53416203  0.82696993    -0.23900
H2523       H  0.95235380  0.50700223  0.03517984     0.05300
H2524       H  0.95455488  0.47128017  0.99243496     0.08500
H2525       H  0.92569181  0.47492288  0.80674566     0.08500
H2526       H  0.86282582  0.54829454  0.78762802     0.08500
H2527       H  0.83415674  0.54892522  0.85301791     0.08500
H2528       H  0.83727416  0.51483408  0.80446163     0.05300
C2529       C  0.91862942  0.27566413  0.98247537    -0.20500
C2530       C  0.89638624  0.29339293  0.76430828    -0.07100
C2531       C  0.87696343  0.27886970  0.81389522     0.13800
C2532       C  0.87994886  0.24723788  0.82899243    -0.20600
C2533       C  0.90195517  0.22951652  0.79711893    -0.07100
C2534       C  0.92222851  0.24402474  0.74945409     0.13700
C2535       C  0.94911303  0.22717139  0.97060710    -0.23900
H2536       H  0.93412586  0.28687654  0.94591294     0.15000
H2537       H  0.86451907  0.23614382  0.86591839     0.15100
C2538       C  0.85195042  0.29502724  0.85106076    -0.23900
H2539       H  0.96341535  0.24241691  0.93618097     0.05300
H2540       H  0.94062917  0.20666766  0.94393250     0.08500
H2541       H  0.96442974  0.21921947  0.00979033     0.08500
H2542       H  0.82890464  0.28360431  0.84154999     0.08500
H2543       H  0.85084462  0.31999055  0.83850189     0.08500
H2544       H  0.85601412  0.29281381  0.90376850     0.05300
C2545       C  0.66368055  0.04618670  0.77174060    -0.20500
C2546       C  0.64300186  0.05653227  0.81971019    -0.07100
C2547       C  0.62403647  0.03435591  0.85589242     0.13800
C2548       C  0.62715350  0.00251297  0.84519927    -0.20600
C2549       C  0.64842867  0.99209581  0.79875942    -0.07100
C2550       C  0.66677183  0.01416428  0.76109755     0.13700
C2551       C  0.69095888  0.00408677  0.71292947    -0.23900
H2552       H  0.67828263  0.06318948  0.74413992     0.15000
H2553       H  0.61276095  0.98550046  0.87329678     0.15100
C2554       C  0.59927275  0.04403481  0.90331917    -0.23900
H2555       H  0.70354973  0.02435764  0.68832648     0.05300
H2556       H  0.67976812  0.98992729  0.92489154     0.08500
H2557       H  0.70828858  0.99015469  0.73862068     0.08500
H2558       H  0.58279354  0.05868734  0.87708126     0.08500
H2559       H  0.60972370  0.05721250  0.94340396     0.08500
H2560       H  0.58580715  0.02362581  0.92530427     0.05300
C2561       C  0.79075040  0.16270298  0.88634191    -0.20500
C2562       C  0.80463182  0.14236406  0.84254651    -0.07100
C2563       C  0.78506628  0.12466837  0.80161763     0.13800
C2564       C  0.75252190  0.12705925  0.80720746    -0.20600
C2565       C  0.73887072  0.14657286  0.85248347    -0.07100
C2566       C  0.75824228  0.16526967  0.89127373     0.13700
C2567       C  0.74483226  0.18898227  0.93558905    -0.23900
H2568       H  0.80549367  0.17688663  0.91685616     0.15000
H2569       H  0.73749728  0.11325496  0.77650666     0.15100
C2570       C  0.79781417  0.10261949  0.00294746    -0.23900
H2571       H  0.76332775  0.20220658  0.96131478     0.05300
H2572       H  0.72911730  0.17722329  0.97252989     0.08500
H2573       H  0.73144278  0.20588247  0.90699269     0.08500
H2574       H  0.81058868  0.08441494  0.02829210     0.08500
H2575       H  0.81380127  0.11527338  0.96798534     0.08500
H2576       H  0.77910561  0.09092277  0.97500550     0.05300
C2577       C  0.66524475  0.53948267  0.73770169    -0.20500
C2578       C  0.64372496  0.55095398  0.78275657    -0.07100
C2579       C  0.62354779  0.52933562  0.81824495     0.13800
C2580       C  0.62564953  0.49718589  0.80725891    -0.20600
C2581       C  0.64652319  0.48622769  0.01026847    -0.07100
C2582       C  0.66699295  0.50758183  0.72640994     0.13700
C2583       C  0.69173831  0.49707681  0.92983180    -0.23900
H2584       H  0.68107995  0.55569490  0.71096309     0.15000
H2585       H  0.60988114  0.48068445  0.83344559     0.15100
C2586       C  0.59832630  0.53879544  0.86494561    -0.23900
H2587       H  0.70676993  0.51670837  0.66001805     0.05300
H2588       H  0.68124802  0.48448716  0.88894331     0.08500
H2589       H  0.70715358  0.48124642  0.70793311     0.08500
H2590       H  0.59610147  0.56422112  0.86727960     0.08500
H2591       H  0.60296229  0.52948256  0.91426070     0.08500
H2592       H  0.57544255  0.52892053  0.84957248     0.05300
C2593       C  0.74939378  0.37061591  0.75819867    -0.20500
C2594       C  0.73657263  0.39114076  0.96240596    -0.07100
C2595       C  0.75688323  0.40830410  0.91826609     0.13800
C2596       C  0.78921899  0.40501876  0.92222989    -0.20600
C2597       C  0.80175457  0.38519573  0.96898940    -0.07100
C2598       C  0.78158804  0.36732637  0.76164333     0.13700
C2599       C  0.79361873  0.34344666  0.80787552    -0.23900
H2600       H  0.73401730  0.35678716  0.79108804     0.15000
H2601       H  0.80493798  0.41838969  0.88921741     0.15100
C2602       C  0.74512736  0.43089046  0.86848658    -0.23900
H2603       H  0.77456186  0.33120409  0.83706575     0.05300
H2604       H  0.80974479  0.35481331  0.84184104     0.08500
H2605       H  0.80583327  0.32582023  0.77943544     0.08500
H2606       H  0.73247878  0.44935387  0.89289014     0.08500
H2607       H  0.72925610  0.41869670  0.83530481     0.08500
H2608       H  0.76443649  0.44226989  0.83858509     0.05300
C2609       C  0.66287232  0.29443438  0.88055729    -0.20500
C2610       C  0.64164594  0.30332954  0.92889826    -0.07100
C2611       C  0.62256016  0.28016414  0.96189209     0.13800
C2612       C  0.62546930  0.24872117  0.94606124    -0.20600
C2613       C  0.64672892  0.23977418  0.89770983    -0.07100
C2614       C  0.66604640  0.26299573  0.86510164     0.13700
C2615       C  0.69130669  0.25571732  0.81626837    -0.23900
H2616       H  0.67780150  0.31215625  0.85574470     0.15000
H2617       H  0.61054035  0.23098670  0.97078380     0.15100
C2618       C  0.59813334  0.28850252  0.01159578    -0.23900
H2619       H  0.68612017  0.26641522  0.76845454     0.05300
H2620       H  0.69431972  0.23046442  0.81024751     0.08500
H2621       H  0.71400853  0.26573702  0.83232412     0.08500
H2622       H  0.58170241  0.30476475  0.98939154     0.08500
H2623       H  0.60920927  0.29973036  0.05343240     0.08500
H2624       H  0.58444112  0.26755790  0.03046254     0.05300
C2625       C  0.04462279  0.11956959  0.83987476    -0.20500
C2626       C  0.05713891  0.13990589  0.88578413    -0.07100
C2627       C  0.03729381  0.16074939  0.91662551     0.13800
C2628       C  0.00547502  0.15984124  0.90364014    -0.20600
C2629       C  0.99248686  0.13876397  0.85997395    -0.07100
C2630       C  0.01244775  0.11859659  0.82673628     0.13700
C2631       C  0.99993714  0.09510528  0.77991427    -0.23900
H2632       H  0.05991609  0.10378631  0.81563097     0.15000
H2633       H  0.99052530  0.17578519  0.92826740     0.15100
C2634       C  0.04974806  0.18514764  0.96102039    -0.23900
H2635       H  0.01855957  0.08073388  0.00961247     0.05300
H2636       H  0.98906043  0.10720403  0.73872141     0.08500
H2637       H  0.98228522  0.07913753  0.80497953     0.08500
H2638       H  0.06753826  0.20000650  0.93360946     0.08500
H2639       H  0.06011892  0.17395560  0.00390676     0.08500
H2640       H  0.03117839  0.20029500  0.72926623     0.05300
C2641       C  0.49724685  0.13731626  0.88566831    -0.20500
C2642       C  0.48648850  0.15712450  0.83657605    -0.07100
C2643       C  0.50831134  0.17658360  0.80079085     0.13800
C2644       C  0.54019835  0.17395967  0.81102604    -0.20600
C2645       C  0.55127191  0.15263573  0.85678493    -0.07100
C2646       C  0.52938859  0.13480026  0.89635045     0.13700
C2647       C  0.53950171  0.11210932  0.94761512    -0.23900
H2648       H  0.48047561  0.12291606  0.91426042     0.15000
H2649       H  0.55674039  0.18869226  0.78248462     0.15100
C2650       C  0.49806995  0.20183534  0.00506297    -0.23900
H2651       H  0.51926916  0.10023833  0.97382036     0.05300
H2652       H  0.55375031  0.12439617  0.98371067     0.08500
H2653       H  0.55349525  0.09407478  0.92494623     0.08500
H2654       H  0.48390028  0.21807730  0.03316374     0.08500
H2655       H  0.48444699  0.19170057  0.96524986     0.08500
H2656       H  0.51819947  0.21553523  0.98255985     0.05300
C2657       C  0.28464622  0.12154930  0.78120425    -0.20500
C2658       C  0.30371632  0.14577233  0.00291075    -0.07100
C2659       C  0.29033944  0.16790023  0.96112835     0.13800
C2660       C  0.25848607  0.16465669  0.94714195    -0.20600
C2661       C  0.23938976  0.14037100  0.97517122    -0.07100
C2662       C  0.25274235  0.11840521  0.76744475     0.13700
C2663       C  0.23389570  0.09081204  0.79558375    -0.23900
H2664       H  0.29494711  0.10463150  0.81321864     0.15000
H2665       H  0.24821722  0.18165051  0.91525037     0.15100
C2666       C  0.30908716  0.19589982  0.93396447    -0.23900
H2667       H  0.24832766  0.07513069  0.82488797     0.05300
H2668       H  0.22363030  0.07708133  0.75587658     0.08500
H2669       H  0.21502914  0.09889288  0.82767910     0.08500
H2670       H  0.32838636  0.18841742  0.90225254     0.08500
H2671       H  0.31888519  0.20959014  0.97421782     0.08500
H2672       H  0.29462217  0.21151322  0.90457740     0.05300
C2673       C  0.03814556  0.40974068  0.91527897    -0.20500
C2674       C  0.05446106  0.38931733  0.95479475    -0.07100
C2675       C  0.03775068  0.36890101  0.99918279     0.13800
C2676       C  0.00511210  0.37017013  0.00413009    -0.20600
C2677       C  0.98886871  0.39022268  0.96361870    -0.07100
C2678       C  0.00558813  0.41037038  0.91878979     0.13700
C2679       C  0.98943971  0.43298701  0.87521124    -0.23900
H2680       H  0.05102400  0.42524931  0.88104764     0.15000
H2681       H  0.99220032  0.35425251  0.78781326     0.15100
C2682       C  0.05396277  0.34411435  0.78762380    -0.23900
H2683       H  0.00631337  0.44780455  0.84522539     0.05300
H2684       H  0.97509337  0.44854948  0.90443804     0.08500
H2685       H  0.97424756  0.42015820  0.84181233     0.08500
H2686       H  0.07083178  0.35501228  0.82056097     0.08500
H2687       H  0.06640948  0.32894015  0.00416582     0.08500
H2688       H  0.03714072  0.32928510  0.81770429     0.05300
C2689       C  0.16946834  0.24950735  0.89806576    -0.20500
C2690       C  0.15018304  0.23269687  0.94398986    -0.07100
C2691       C  0.13172354  0.24965017  0.98777447     0.13800
C2692       C  0.13196614  0.28237894  0.98215354    -0.20600
C2693       C  0.15006620  0.29873664  0.93419618    -0.07100
C2694       C  0.16986615  0.28220313  0.89308536     0.13700
C2695       C  0.19256884  0.29898098  0.84623486    -0.23900
H2696       H  0.18436559  0.23693656  0.86549902     0.15000
H2697       H  0.11754046  0.29536453  0.01491728     0.15100
C2698       C  0.11105154  0.23389348  0.03948925    -0.23900
H2699       H  0.20678935  0.28249277  0.81864642     0.05300
H2700       H  0.20863818  0.31446139  0.87338385     0.08500
H2701       H  0.17992743  0.31315766  0.81088878     0.08500
H2702       H  0.12505968  0.21985728  0.07197946     0.08500
H2703       H  0.09353139  0.21844686  0.01753969     0.08500
H2704       H  0.09859685  0.25087133  0.06942094     0.05300
C2705       C  0.53980616  0.42006085  0.77842708    -0.20500
C2706       C  0.55000040  0.39860390  0.98324320    -0.07100
C2707       C  0.52793572  0.38028346  0.94953606     0.13800
C2708       C  0.49598833  0.38387850  0.96256509    -0.20600
C2709       C  0.48583398  0.40491415  0.75911516    -0.07100
C2710       C  0.50805262  0.42368707  0.79128873     0.13700
C2711       C  0.49852127  0.44877684  0.83651443    -0.23900
H2712       H  0.55690255  0.43422807  0.80363371     0.15000
H2713       H  0.47896340  0.36935634  0.93802262     0.15100
C2714       C  0.53709779  0.35564070  0.90265801    -0.23900
H2715       H  0.51899892  0.46196555  0.85548596     0.05300
H2716       H  0.48488354  0.43867456  0.87875994     0.08500
H2717       H  0.48440993  0.46544234  0.80921701     0.08500
H2718       H  0.52741316  0.33252341  0.92044408     0.08500
H2719       H  0.56266987  0.35387969  0.89652436     0.08500
H2720       H  0.52736664  0.36084684  0.85447452     0.05300
C2721       C  0.37204948  0.25909771  0.83962346    -0.20500
C2722       C  0.39160026  0.24532655  0.79363607    -0.07100
C2723       C  0.41056668  0.26489937  0.75113980     0.13800
C2724       C  0.41055272  0.29725852  0.75808750    -0.20600
C2725       C  0.39192081  0.31077480  0.80546374    -0.07100
C2726       C  0.37174932  0.29157465  0.84582963     0.13700
C2727       C  0.34867579  0.30430774  0.89371076    -0.23900
H2728       H  0.35689924  0.24439495  0.87131466     0.15000
H2729       H  0.42529671  0.31228282  0.72613962     0.15100
C2730       C  0.43149870  0.25230046  0.69919677    -0.23900
H2731       H  0.35321058  0.29520817  0.94315826     0.05300
H2732       H  0.32468698  0.29647638  0.88090871     0.08500
H2733       H  0.34937097  0.33011030  0.89469088     0.08500
H2734       H  0.41737006  0.23861985  0.91468463     0.08500
H2735       H  0.44840256  0.23694356  0.72127555     0.08500
H2736       H  0.44474192  0.27113098  0.67120742     0.05300
C2737       C  0.29213159  0.41908211  0.90251570    -0.20500
C2738       C  0.30327328  0.39954630  0.85428479    -0.07100
C2739       C  0.28261391  0.37783740  0.82548484     0.13800
C2740       C  0.25108775  0.37685548  0.84451379    -0.20600
C2741       C  0.23978159  0.39663995  0.89209153    -0.07100
C2742       C  0.26051117  0.41802150  0.92168463     0.13700
C2743       C  0.24930340  0.44071729  0.97093009    -0.23900
H2744       H  0.30819916  0.43558464  0.92454070     0.15000
H2745       H  0.23504841  0.36062497  0.82169541     0.15100
C2746       C  0.29374047  0.35482713  0.02641883    -0.23900
H2747       H  0.26865146  0.45625795  0.98760294     0.05300
H2748       H  0.23896536  0.42799100  0.01405562     0.08500
H2749       H  0.23145446  0.45554827  0.94941826     0.08500
H2750       H  0.31221874  0.34066054  0.04753077     0.08500
H2751       H  0.30320021  0.36725371  0.98215682     0.08500
H2752       H  0.27454134  0.33862393  0.01153021     0.05300
C2753       C  0.12788602  0.99122685  0.92769106    -0.20500
C2754       C  0.14829106  0.98090123  0.87912445    -0.07100
C2755       C  0.16960723  0.00263387  0.84787068     0.13800
C2756       C  0.16902360  0.03415291  0.86379322    -0.20600
C2757       C  0.14796213  0.04495401  0.91047455    -0.07100
C2758       C  0.12731821  0.02302907  0.94362282     0.13700
C2759       C  0.10369599  0.03302959  0.99333468    -0.23900
H2760       H  0.11169510  0.97446813  0.95189431     0.15000
H2761       H  0.18502301  0.05062351  0.83871568     0.15100
C2762       C  0.19373687  0.99273793  0.79886948    -0.23900
H2763       H  0.08892241  0.01294877  0.01288524     0.05300
H2764       H  0.08816677  0.05015328  0.97102882     0.08500
H2765       H  0.11569272  0.04379337  0.03465861     0.08500
H2766       H  0.18232325  0.98350428  0.75537350     0.08500
H2767       H  0.20812093  0.97449034  0.82078264     0.08500
H2768       H  0.20965462  0.01255780  0.78237191     0.05300
C2769       C  0.03843218  0.86567864  0.88186658    -0.20500
C2770       C  0.05192591  0.88721894  0.83593695    -0.07100
C2771       C  0.03250141  0.90787832  0.80285720     0.13800
C2772       C  0.00038736  0.90729806  0.81897363    -0.20600
C2773       C  0.98750196  0.88700221  0.86791345    -0.07100
C2774       C  0.00664431  0.86532400  0.89843624     0.13700
C2775       C  0.99370623  0.84121898  0.94754577    -0.23900
H2776       H  0.05309056  0.84934809  0.90636799     0.15000
H2777       H  0.98545574  0.92351881  0.79493006     0.15100
C2778       C  0.04552566  0.93150089  0.75313866    -0.23900
H2779       H  0.97444432  0.82694332  0.67506707     0.05300
H2780       H  0.01175094  0.82498687  0.96325485     0.08500
H2781       H  0.98489104  0.85268042  0.99150412     0.08500
H2782       H  0.05657838  0.91943785  0.71215720     0.08500
H2783       H  0.02703326  0.94606760  0.73312070     0.08500
H2784       H  0.06326850  0.94742843  0.02605083     0.05300
C2785       C  0.16295220  0.53870915  0.89110899    -0.20500
C2786       C  0.14334304  0.55122463  0.93860758    -0.07100
C2787       C  0.12361652  0.53071591  0.97763196     0.13800
C2788       C  0.12476310  0.49849164  0.96936154    -0.20600
C2789       C  0.14491075  0.48596307  0.92334096    -0.07100
C2790       C  0.16414114  0.50625744  0.88327693     0.13700
C2791       C  0.18703116  0.49383482  0.83482407    -0.23900
H2792       H  0.17797392  0.55435493  0.86111462     0.15000
H2793       H  0.11001138  0.48277241  0.99981804     0.15100
C2794       C  0.10060680  0.54232381  0.77704449    -0.23900
H2795       H  0.20063520  0.51294249  0.80844709     0.05300
H2796       H  0.17451270  0.47987978  0.79859385     0.08500
H2797       H  0.20364034  0.47882211  0.85994585     0.08500
H2798       H  0.08483928  0.55876504  0.75365422     0.08500
H2799       H  0.11292335  0.55426067  0.81643648     0.08500
H2800       H  0.08593857  0.52296770  0.79992662     0.05300
C2801       C  0.03194998  0.65877249  0.97981293    -0.20500
C2802       C  0.05004457  0.63774227  0.94627840    -0.07100
C2803       C  0.03538999  0.61580864  0.90573088     0.13800
C2804       C  0.00294111  0.61601394  0.89869409    -0.20600
C2805       C  0.98482916  0.63739200  0.93163338    -0.07100
C2806       C  0.99964481  0.65938240  0.97170245     0.13700
C2807       C  0.98198279  0.68494147  0.75195506    -0.23900
H2808       H  0.04332351  0.67551601  0.76056936     0.15000
H2809       H  0.99157974  0.59923827  0.86767522     0.15100
C2810       C  0.05357458  0.59139505  0.87187068    -0.23900
H2811       H  0.99751898  0.70090353  0.77933474     0.05300
H2812       H  0.96380860  0.67495266  0.78603790     0.08500
H2813       H  0.97088419  0.69888721  0.71349275     0.08500
H2814       H  0.06544296  0.57685115  0.90795758     0.08500
H2815       H  0.07131379  0.60252058  0.83831865     0.08500
H2816       H  0.03828254  0.57574503  0.84326185     0.05300
C2817       C  0.12167150  0.78067527  0.80437479    -0.20500
C2818       C  0.14386475  0.80081387  0.77214779    -0.07100
C2819       C  0.16366798  0.78838964  0.72376592     0.13800
C2820       C  0.16119236  0.75645377  0.71058567    -0.20600
C2821       C  0.13957402  0.73636922  0.74395935    -0.07100
C2822       C  0.11882722  0.74882429  0.79003103     0.13700
C2823       C  0.09246470  0.72915161  0.82134432    -0.23900
H2824       H  0.10603864  0.79008438  0.84034932     0.15000
H2825       H  0.17707681  0.74695267  0.92503426     0.15100
C2826       C  0.18901481  0.80707729  0.68732181    -0.23900
H2827       H  0.07761676  0.74302471  0.85366468     0.05300
H2828       H  0.10145723  0.70983762  0.85093809     0.08500
H2829       H  0.07753292  0.71934871  0.78311736     0.08500
H2830       H  0.21200054  0.79819687  0.70059745     0.08500
H2831       H  0.18870268  0.83216640  0.94697650     0.08500
H2832       H  0.18666983  0.80408889  0.88435509     0.05300
C2833       C  0.42280345  0.01126978  0.84008347    -0.20500
C2834       C  0.40111821  0.99298057  0.80628705    -0.07100
C2835       C  0.37931143  0.00775832  0.76694109     0.13800
C2836       C  0.37997501  0.04046466  0.76176551    -0.20600
C2837       C  0.40092047  0.05857805  0.79744547    -0.07100
C2838       C  0.42291989  0.04390934  0.83630607     0.13700
C2839       C  0.44686626  0.06258971  0.87288171    -0.23900
H2840       H  0.43943325  0.99990911  0.87051216     0.15000
H2841       H  0.36322996  0.05201559  0.98219470     0.15100
C2842       C  0.35400575  0.98942814  0.98431190    -0.23900
H2843       H  0.46293497  0.04733648  0.89911515     0.05300
H2844       H  0.43518218  0.07706662  0.90916220     0.08500
H2845       H  0.46101944  0.07795337  0.83844682     0.08500
H2846       H  0.33972919  0.97570710  0.02135735     0.08500
H2847       H  0.36424384  0.97342822  0.94927444     0.08500
H2848       H  0.33831633  0.00484311  0.95745698     0.05300
C2849       C  0.50822172  0.88221107  0.87738888    -0.20500
C2850       C  0.49235773  0.90401788  0.84053736    -0.07100
C2851       C  0.50925878  0.92492461  0.79757201     0.13800
C2852       C  0.54166077  0.92279202  0.79098724    -0.20600
C2853       C  0.55757041  0.90027971  0.82617251    -0.07100
C2854       C  0.54060942  0.87968045  0.86978558     0.13700
C2855       C  0.55604840  0.85357930  0.90458663    -0.23900
H2856       H  0.49498250  0.86603970  0.90968508     0.15000
H2857       H  0.55457262  0.93880721  0.00777701     0.15100
C2858       C  0.49322356  0.94997048  0.00971201    -0.23900
H2859       H  0.53904366  0.83875090  0.93429783     0.05300
H2860       H  0.57371591  0.86315784  0.93742193     0.08500
H2861       H  0.56739370  0.83855954  0.86860596     0.08500
H2862       H  0.48024851  0.96473885  0.79341085     0.08500
H2863       H  0.47664211  0.93931251  0.97558081     0.08500
H2864       H  0.51019376  0.96512366  0.98070160     0.05300
C2865       C  0.29102326  0.87823198  0.79865011    -0.20500
C2866       C  0.30503838  0.89863950  0.84251143    -0.07100
C2867       C  0.28585205  0.91798087  0.87962969     0.13800
C2868       C  0.25335243  0.91598503  0.87242630    -0.20600
C2869       C  0.23961022  0.89565320  0.82824126    -0.07100
C2870       C  0.25869354  0.87647734  0.79134080     0.13700
C2871       C  0.24497708  0.85295289  0.99673010    -0.23900
H2872       H  0.30545115  0.86322365  0.77017319     0.15000
H2873       H  0.23852121  0.93050390  0.90117944     0.15100
C2874       C  0.29932816  0.94174048  0.92445759    -0.23900
H2875       H  0.26308162  0.83924035  0.97236719     0.05300
H2876       H  0.23197924  0.86512095  0.95874375     0.08500
H2877       H  0.22912301  0.83657713  0.02549015     0.08500
H2878       H  0.31526589  0.95820002  0.89613664     0.08500
H2879       H  0.31217541  0.93005131  0.96344140     0.08500
H2880       H  0.28097377  0.95545961  0.94795961     0.05300
C2881       C  0.40996824  0.55082850  0.82634932    -0.20500
C2882       C  0.39079853  0.56302676  0.02835453    -0.07100
C2883       C  0.37023137  0.54274792  0.99546191     0.13800
C2884       C  0.37114001  0.51056845  0.00747355    -0.20600
C2885       C  0.39196214  0.49797656  0.80198929    -0.07100
C2886       C  0.41075481  0.51849793  0.83871954     0.13700
C2887       C  0.43259484  0.50673250  0.88882902    -0.23900
H2888       H  0.42512679  0.56661804  0.85257644     0.15000
H2889       H  0.35586340  0.49502007  0.98093014     0.15100
C2890       C  0.34661915  0.55483356  0.94903608    -0.23900
H2891       H  0.44544296  0.52611151  0.91265858     0.05300
H2892       H  0.44984904  0.49186148  0.86579247     0.08500
H2893       H  0.41940173  0.49288165  0.92692684     0.08500
H2894       H  0.35843334  0.56664236  0.90636830     0.08500
H2895       H  0.33160227  0.57155120  0.97399673     0.08500
H2896       H  0.33128275  0.53569913  0.93075339     0.05300
C2897       C  0.50562314  0.63194092  0.96480461    -0.20500
C2898       C  0.48965146  0.65503609  0.99768236    -0.07100
C2899       C  0.50670250  0.67578120  0.78745415     0.13800
C2900       C  0.53896957  0.67268039  0.79324734    -0.20600
C2901       C  0.55472654  0.64942050  0.76078630    -0.07100
C2902       C  0.53778515  0.62850967  0.97205702     0.13700
C2903       C  0.55310982  0.60124044  0.94188337    -0.23900
H2904       H  0.49263008  0.61563485  0.93539691     0.15000
H2905       H  0.55206953  0.68852569  0.82351029     0.15100
C2906       C  0.49136511  0.70175205  0.82266378    -0.23900
H2907       H  0.53630400  0.58650574  0.91477891     0.05300
H2908       H  0.56320601  0.58642790  0.98027398     0.08500
H2909       H  0.57190192  0.60964891  0.90757818     0.08500
H2910       H  0.47465146  0.69197626  0.86035988     0.08500
H2911       H  0.47899356  0.71661759  0.78768014     0.08500
H2912       H  0.50866149  0.71691083  0.84751753     0.05300
C2913       C  0.28599964  0.63138585  0.76860625    -0.20500
C2914       C  0.30256431  0.65220853  0.97545367    -0.07100
C2915       C  0.28601962  0.67181285  0.93379365     0.13800
C2916       C  0.25332158  0.66955977  0.93505186    -0.20600
C2917       C  0.23658709  0.64850647  0.97740981    -0.07100
C2918       C  0.25323446  0.62889905  0.76957106     0.13700
C2919       C  0.23688154  0.60435267  0.81307355    -0.23900
H2920       H  0.29884594  0.61652348  0.80074765     0.15000
H2921       H  0.24067549  0.68462211  0.90297004     0.15100
C2922       C  0.30250607  0.69600509  0.88978494    -0.23900
H2923       H  0.25368745  0.59026039  0.84005726     0.05300
H2924       H  0.22249461  0.58824230  0.78362592     0.08500
H2925       H  0.22178177  0.61543263  0.84931695     0.08500
H2926       H  0.31751025  0.68458679  0.85424158     0.08500
H2927       H  0.31711280  0.71210104  0.91847205     0.08500
H2928       H  0.28585504  0.71009069  0.86236460     0.05300
C2929       C  0.37787402  0.79832028  0.94266082    -0.20500
C2930       C  0.39824440  0.80918963  0.89201228    -0.07100
C2931       C  0.41932065  0.78851358  0.86418299     0.13800
C2932       C  0.41888135  0.75734084  0.88672352    -0.20600
C2933       C  0.39828037  0.74637828  0.93696449    -0.07100
C2934       C  0.37760449  0.76725805  0.96566814     0.13700
C2935       C  0.35459366  0.75701267  0.01920677    -0.23900
H2936       H  0.36200018  0.81433740  0.96446846     0.15000
H2937       H  0.43484105  0.74138289  0.86505450     0.15100
C2938       C  0.44315107  0.79935240  0.81277886    -0.23900
H2939       H  0.33969343  0.77629856  0.03420570     0.05300
H2940       H  0.36702764  0.74906290  0.06249556     0.08500
H2941       H  0.33911729  0.73762000  0.00303209     0.08500
H2942       H  0.45814403  0.81866760  0.83138311     0.08500
H2943       H  0.43139304  0.80759554  0.76876075     0.08500
H2944       H  0.45845699  0.78028328  0.79834645     0.05300
loop_ 
_geom_bond_atom_site_label_1 
_geom_bond_atom_site_label_2 
_geom_bond_distance 
_geom_bond_site_symmetry_2 
_ccdc_geom_bond_type 
O1           C11   1.265       .  A
O1          V745   1.904       .  S
O2         C2220   1.264       .  A
O2            V9   1.902       .  S
O3         C2221   1.263   1_554  A
O3            V9   1.895       .  S
O4           C14   1.262       .  A
O4          V745   1.892       .  S
O5           C14   1.265       .  A
O5           V10   1.908       .  S
O6           C13   1.267       .  A
O6           V10   1.906       .  S
O7           C12   1.263       .  A
O7           V10   1.892       .  S
O8           C11   1.263       .  A
O8           V10   1.894       .  S
V9         O2209   1.904       .  S
V9         O2212   1.892       .  S
V9         V2218   2.081   1_554  T
V10         V745   2.081       .  T
C11         C725   1.480       .  S
C12         O738   1.264       .  A
C12         C674   1.474       .  S
C13         O739   1.263       .  A
C13         C690   1.484       .  S
C14         C706   1.477       .  S
O15          C25   1.267       .  A
O15          V23   1.910       .  S
O16          C26   1.266       .  A
O16          V23   1.909       .  S
O17          C27   1.260       .  A
O17          V23   1.886       .  S
O18          C28   1.262       .  A
O18          V23   1.886       .  S
O19          C28   1.267       .  A
O19          V24   1.910       .  S
O20          C27   1.265       .  A
O20          V24   1.905       .  S
O21          C26   1.260       .  A
O21          V24   1.885       .  S
O22          C25   1.261       .  A
O22          V24   1.888       .  S
V23          V24   2.081       .  T
C25         C722   1.479       .  S
C26         C626   1.475       .  S
C27         C642   1.469       .  S
C28         C658   1.484       .  S
O29         C775   1.267       .  A
O29          V37   1.911       .  S
O30          C40   1.267       .  A
O30          V37   1.910       .  S
O31          C41   1.262       .  A
O31          V37   1.897       .  S
O32          C42   1.262       .  A
O32          V37   1.890       .  S
O33        C2250   1.266   1_554  A
O33          V38   1.907       .  S
O34        C2249   1.263   1_554  A
O34          V38   1.900       .  S
O35        C2248   1.261   1_554  A
O35          V38   1.889       .  S
O36          C39   1.261   1_554  A
O36          V38   1.893       .  S
V37         V774   2.084       .  T
V38        V2245   2.084   1_554  T
C39        O2237   1.267       .  A
C39         C613   1.481       .  S
C40         O771   1.261       .  A
C40         C578   1.483       .  S
C41         O770   1.264       .  A
C41         C594   1.473       .  S
C42         O769   1.266       .  A
C42         C709   1.483       .  S
O43          C53   1.267       .  A
O43          V51   1.908       .  S
O44          C54   1.265       .  A
O44          V51   1.910       .  S
O45          C55   1.260       .  A
O45          V51   1.878       .  S
O46          C56   1.260       .  A
O46          V51   1.889       .  S
O47          C56   1.267       .  A
O47          V52   1.913       .  S
O48          C55   1.268       .  A
O48          V52   1.916       .  S
O49          C54   1.264       .  A
O49          V52   1.897       .  S
O50          C53   1.263   1_556  A
O50          V52   1.906   1_556  S
V51          V52   2.085       .  T
C53         C610   1.490       .  S
C54         C546   1.483       .  S
C55         C562   1.483       .  S
C56         C661   1.475       .  S
O57          C67   1.263       .  A
O57          V65   1.895       .  S
O58         C804   1.264       .  A
O58         V801   1.903       .  S
O59          C69   1.260       .  A
O59          V65   1.884       .  S
O60          C70   1.264       .  A
O60          V65   1.888       .  S
O61          C70   1.265       .  A
O61          V66   1.907       .  S
O62          C69   1.265       .  A
O62          V66   1.906       .  S
O63          C68   1.263       .  A
O63          V66   1.895       .  S
O64          C67   1.262       .  A
O64          V66   1.892       .  S
V65        O2266   1.903   1_554  S
V65          V66   2.087       .  T
C67         C530   1.468       .  S
C68        O2266   1.264   1_554  A
C68         C501   1.476       .  S
C69         C517   1.468       .  S
C70         C677   1.484       .  S
O71          C81   1.265       .  A
O71          V79   1.904       .  S
O72          C82   1.264       .  A
O72          V79   1.904       .  S
O73          C83   1.261       .  A
O73          V79   1.892       .  S
O74          C84   1.263       .  A
O74          V79   1.891       .  S
O75          C84   1.265       .  A
O75          V80   1.909       .  S
O76          C83   1.266       .  A
O76          V80   1.908       .  S
O77          C82   1.262       .  A
O77          V80   1.888       .  S
O78          C81   1.260       .  A
O78          V80   1.882       .  S
V79          V80   2.085       .  T
C81         C533   1.470       .  S
C82         C466   1.475       .  S
C83         C485   1.477       .  S
C84         C581   1.477       .  S
O85          C95   1.265       .  A
O85          V93   1.907       .  S
O86          C96   1.265       .  A
O86          V93   1.907       .  S
O87          C97   1.266       .  A
O87          V93   1.900       .  S
O88          C98   1.262       .  A
O88          V93   1.894       .  S
O89         C834   1.263       .  A
O89          V94   1.899       .  S
O90         C833   1.262       .  A
O90          V94   1.894       .  S
O91         C832   1.265       .  A
O91          V94   1.903       .  S
O92         C831   1.264       .  A
O92          V94   1.903       .  S
V93        V2302   2.085   1_554  T
V94         V829   2.085       .  T
C95        O2300   1.264   1_554  A
C95        C2658   1.483       .  S
C96        O2299   1.265       .  A
C96         C434   1.484       .  S
C97        O2298   1.262   1_554  A
C97         C514   1.484       .  S
C98        O2297   1.263   1_554  A
C98         C629   1.468       .  S
O99         C109   1.264       .  A
O99         V107   1.902       .  S
O100        C110   1.265       .  A
O100        V107   1.911       .  S
O101        C111   1.264       .  A
O101        V107   1.890       .  S
O102        C112   1.264       .  A
O102        V107   1.894       .  S
O103        C112   1.267       .  A
O103        V108   1.915       .  S
O104        C111   1.267       .  A
O104        V108   1.918       .  S
O105        C110   1.265       .  A
O105        V108   1.904       .  S
O106        C109   1.266       .  A
O106        V108   1.910       .  S
V107        V108   2.084       .  T
C109        C453   1.486       .  S
C110        C418   1.486       .  S
C111        C482   1.494       .  S
C112        C549   1.491       .  S
O113        C123   1.265       .  A
O113        V857   1.903       .  S
O114       C2332   1.265   1_554  A
O114        V121   1.907       .  S
O115       C2333   1.261   1_554  A
O115        V121   1.886       .  S
O116        C126   1.264       .  A
O116        V857   1.889       .  S
O117        C126   1.264       .  A
O117        V122   1.904       .  S
O118        C125   1.265       .  A
O118        V122   1.906       .  S
O119        C124   1.264       .  A
O119        V122   1.899       .  S
O120        C123   1.264       .  A
O120        V122   1.900       .  S
V121       O2321   1.903       .  S
V121       O2324   1.889       .  S
V121       V2330   2.086   1_554  T
V122        V857   2.086       .  T
C123        C402   1.480       .  S
C124        O850   1.265       .  A
C124        C373   1.480       .  S
C125        O851   1.261       .  A
C125        C498   1.469       .  S
C126        C386   1.483       .  S
O127        C137   1.266       .  A
O127        V135   1.906       .  S
O128        C138   1.265       .  A
O128        V135   1.906       .  S
O129        C139   1.264       .  A
O129        V135   1.890       .  S
O130        C140   1.261       .  A
O130        V135   1.891       .  S
O131        C140   1.267       .  A
O131        V136   1.912       .  S
O132        C139   1.266       .  A
O132        V136   1.913       .  S
O133        C138   1.263       .  A
O133        V136   1.897       .  S
O134        C137   1.263       .  A
O134        V136   1.897       .  S
V135        V136   2.086       .  T
C137        C405   1.481       .  S
C138        C338   1.481       .  S
C139        C437   1.488       .  S
C140        C357   1.480       .  S
O141        C887   1.268       .  A
O141        V149   1.912       .  S
O142        C152   1.266       .  A
O142        V149   1.909       .  S
O143        C153   1.260       .  A
O143        V149   1.890       .  S
O144        C154   1.261       .  A
O144        V149   1.891       .  S
O145       C2362   1.266   1_554  A
O145        V150   1.908       .  S
O146       C2361   1.265   1_554  A
O146        V150   1.902       .  S
O147       C2360   1.261   1_554  A
O147        V150   1.889       .  S
O148        C151   1.260   1_554  A
O148        V150   1.887       .  S
V149        V886   2.086       .  T
V150       V2357   2.086   1_554  T
C151       O2349   1.268       .  A
C151        C322   1.481   1_556  S
C152        O883   1.261       .  A
C152        C309   1.478       .  S
C153        O882   1.265       .  A
C153        C469   1.472       .  S
C154        O881   1.266       .  A
C154        C389   1.475       .  S
O155        C165   1.263       .  A
O155        V163   1.893       .  S
O156        C166   1.263       .  A
O156        V163   1.903       .  S
O157        C167   1.264       .  A
O157        V163   1.891       .  S
O158        C168   1.264       .  A
O158        V163   1.893       .  S
O159        C168   1.268       .  A
O159        V164   1.917       .  S
O160        C167   1.266       .  A
O160        V164   1.913       .  S
O161        C166   1.263       .  A
O161        V164   1.892       .  S
O162        C165   1.263       .  A
O162        V164   1.902       .  S
V163        V164   2.084       .  T
C165        C325   1.475       .  S
C166        C293   1.474       .  S
C167        C421   1.488       .  S
C168        C354   1.493       .  S
O169        C179   1.267       .  A
O169        V177   1.910   1_554  S
O170        C916   1.265       .  A
O170        V913   1.908       .  S
O171        C181   1.261   1_556  A
O171        V177   1.890       .  S
O172        C182   1.262   1_556  A
O172        V177   1.884       .  S
O173        C182   1.268       .  A
O173        V178   1.917       .  S
O174        C181   1.266       .  A
O174        V178   1.909       .  S
O175        C180   1.261       .  A
O175        V178   1.894       .  S
O176        C179   1.261       .  A
O176        V178   1.892       .  S
V177       O2378   1.907       .  S
V177        V178   2.086   1_556  T
C179        C277   1.477       .  S
C180       O2378   1.265   1_554  A
C180        C693   1.478       .  S
C181        C258   1.476       .  S
C182        C370   1.488       .  S
O183        C193   1.266       .  A
O183        V191   1.907       .  S
O184        C194   1.266       .  A
O184        V191   1.907       .  S
O185        C195   1.261       .  A
O185        V191   1.883       .  S
O186        C196   1.261       .  A
O186        V191   1.888       .  S
O187        C196   1.266       .  A
O187        V192   1.909       .  S
O188        C195   1.268       .  A
O188        V192   1.914       .  S
O189        C194   1.261       .  A
O189        V192   1.894       .  S
O190        C193   1.262       .  A
O190        V192   1.894       .  S
V191        V192   2.085       .  T
C193        C274   1.477       .  S
C194        C597   1.479       .  S
C195        C245   1.484       .  S
C196        C306   1.474       .  S
O197        C207   1.265       .  A
O197        V205   1.901       .  S
O198        C208   1.265       .  A
O198        V205   1.906       .  S
O199        C209   1.262       .  A
O199        V205   1.892       .  S
O200        C210   1.263       .  A
O200        V205   1.893       .  S
O201        C946   1.266       .  A
O201        V206   1.910       .  S
O202        C945   1.268       .  A
O202        V206   1.912       .  S
O203        C208   1.262       .  A
O203       V2414   1.891   1_554  S
O204        C943   1.261       .  A
O204        V206   1.892       .  S
V205       V2414   2.084   1_554  T
V206        O939   1.891       .  S
V206        V941   2.084       .  T
C207       O2412   1.261   1_554  A
C207       C2437   1.474   1_554  S
C208        C645   1.477       .  S
C209       O2410   1.268   1_554  A
C209        C261   1.488       .  S
C210       O2409   1.266   1_554  A
C210        C341   1.477       .  S
O211        C221   1.265       .  A
O211        V219   1.898       .  S
O212        C222   1.263       .  A
O212        V219   1.901       .  S
O213        C223   1.260       .  A
O213        V219   1.888       .  S
O214        C224   1.261       .  A
O214        V219   1.878       .  S
O215        C224   1.266       .  A
O215        V220   1.911       .  S
O216        C223   1.266       .  A
O216        V220   1.908       .  S
O217        C222   1.264       .  A
O217        V220   1.895       .  S
O218        C221   1.262       .  A
O218        V220   1.899       .  S
V219        V220   2.086       .  T
C221        C226   1.479       .  S
C222        C565   1.476       .  S
C223        C242   1.472       .  S
C224        C290   1.478       .  S
C225        C226   1.403       .  A
C225        C230   1.401       .  A
C225        H232   1.085       .  S
C226        C963   1.418       .  A
C227        C228   1.402       .  A
C227       C2434   1.418   1_554  A
C227        C234   1.505       .  S
C228       C2437   1.401   1_554  A
C228        H233   1.085       .  S
C229        C943   1.474       .  S
C229        C230   1.416       .  A
C229        C964   1.401       .  A
C230        C231   1.507       .  S
C231        H235   1.108       .  S
C231        H236   1.110       .  S
C231        H237   1.104       .  S
C234        H238   1.102       .  S
C234        H239   1.110       .  S
C234        H240   1.108       .  S
C241        C242   1.401       .  A
C241        C246   1.403       .  A
C241        H248   1.085       .  S
C242        C243   1.408       .  A
C243        C244   1.400       .  A
C243        C250   1.501       .  S
C244        C245   1.406       .  A
C244        H249   1.084       .  S
C245        C246   1.415       .  A
C246        C247   1.499       .  S
C247        H251   1.111       .  S
C247        H252   1.108       .  S
C247        H253   1.108       .  S
C250        H254   1.110       .  S
C250        H255   1.107       .  S
C250        H256   1.111       .  S
C257        C258   1.401       .  A
C257        C262   1.403   1_554  A
C257        H264   1.085   1_554  S
C258        C259   1.410       .  A
C259        C260   1.405       .  A
C259        C266   1.506       .  S
C260        C261   1.408       .  A
C260        H265   1.084       .  S
C261        C262   1.416   1_554  A
C262        C263   1.502       .  S
C263        H267   1.111       .  S
C263        H269   1.109       .  S
C263       H2476   1.107       .  S
C266        H270   1.110       .  S
C266        H271   1.104       .  S
C266        H272   1.111       .  S
H268        C999   1.107       .  S
C273        C274   1.404       .  A
C273        C278   1.405       .  A
C273        H280   1.084       .  S
C274        C275   1.413       .  A
C275        C276   1.404       .  A
C275        C282   1.508       .  S
C276        C277   1.404       .  A
C276        H281   1.084       .  S
C277        C278   1.413       .  A
C278       C2487   1.507       .  S
C279       C1014   1.507       .  S
C279        H283   1.111       .  S
C279        H284   1.108       .  S
C279        H285   1.110       .  S
C282        H286   1.110       .  S
C282        H287   1.108       .  S
C282        H288   1.111       .  S
C289        C290   1.402       .  A
C289        C294   1.393   1_565  A
C289        H296   1.085       .  S
C290        C291   1.415   1_565  A
C291        C292   1.410       .  A
C291        C298   1.506   1_545  S
C292        C293   1.406       .  A
C292        H297   1.084       .  S
C293        C294   1.410       .  A
C294        C295   1.504       .  S
C295        H299   1.111       .  S
C295        H300   1.109       .  S
C295        H301   1.110       .  S
C298        H302   1.111       .  S
C298        H304   1.111   1_565  S
C298       H1039   1.109       .  S
H303       C2506   1.109   1_554  S
C305        C306   1.401       .  A
C305        C310   1.400       .  A
C305        H312   1.085       .  S
C306        C307   1.411       .  A
C307        C308   1.407       .  A
C307        C314   1.506       .  S
C308        C309   1.406       .  A
C308        H313   1.084       .  S
C309        C310   1.417       .  A
C310        C311   1.511       .  S
C311        H315   1.111       .  S
C311        H316   1.106       .  S
C311       H1053   1.105       .  S
C314        H318   1.107       .  S
C314        H319   1.111       .  S
C314        H320   1.111       .  S
H317       C2519   1.105       .  S
C321       C1058   1.406       .  A
C321       C1062   1.407       .  A
C321        H328   1.084       .  S
C322        C323   1.420       .  A
C322       C2529   1.406   1_554  A
C323        C324   1.397       .  A
C323        C330   1.505       .  S
C324        C325   1.398       .  A
C324        H329   1.086       .  S
C325        C326   1.414   1_554  A
C326       C2529   1.408       .  A
C326       C2535   1.507       .  S
C327       C1062   1.507       .  S
C327        H331   1.111       .  S
C327        H332   1.103       .  S
C327        H333   1.111       .  S
C330        H334   1.110       .  S
C330        H335   1.099       .  S
C330        H336   1.109       .  S
C337        C338   1.405       .  A
C337        C342   1.407       .  A
C337        H344   1.084   1_554  S
C338        C339   1.414       .  A
C339        C340   1.400       .  A
C339        C346   1.504       .  S
C340        C341   1.401   1_545  A
C340        H345   1.085   1_545  S
C341        C342   1.413   1_565  A
C342        C343   1.503   1_554  S
C343        H347   1.111       .  S
C343        H349   1.110   1_545  S
C343       H2556   1.108   1_545  S
C346        H350   1.107       .  S
C346        H351   1.107       .  S
C346        H352   1.111       .  S
H348       C1079   1.108   1_565  S
C353        C354   1.409       .  A
C353        C358   1.405       .  A
C353        H360   1.084       .  S
C354        C355   1.418       .  A
C355        C356   1.407       .  A
C355       C2570   1.504       .  S
C356        C357   1.403       .  A
C356        H361   1.085       .  S
C357        C358   1.410       .  A
C358        C359   1.506       .  S
C359        H363   1.111       .  S
C359        H364   1.105       .  S
C359        H365   1.111       .  S
C362       C1091   1.503       .  S
C362        H366   1.101       .  S
C362        H367   1.102       .  S
C362        H368   1.111       .  S
C369        C370   1.406   1_556  A
C369        C374   1.399       .  A
C369        H376   1.084       .  S
C370        C371   1.421       .  A
C371        C372   1.409       .  A
C371        C378   1.506       .  S
C372       C2581   1.404       .  A
C372        H377   1.085       .  S
C373       C1108   1.404       .  A
C373       C1110   1.410       .  A
C374       C2581   1.410   1_556  A
C374       C2583   1.504       .  S
C375       C1110   1.504       .  S
C375        H380   1.109       .  S
C375       H1115   1.111       .  S
C375       H1117   1.108       .  S
C378        H382   1.101       .  S
C378        H383   1.110       .  S
C378        H384   1.111       .  S
H379       C2583   1.111       .  S
H381       C2583   1.108       .  S
C385        C390   1.398       .  A
C385       C2594   1.405   1_554  A
C385        H392   1.084       .  S
C386        C387   1.418       .  A
C386       C1121   1.405       .  A
C387        C388   1.405       .  A
C387        C394   1.505       .  S
C388        C389   1.402       .  A
C388        H393   1.085       .  S
C389       C1126   1.408       .  A
C390       C2597   1.408   1_554  A
C390        C391   1.499       .  S
C391        H395   1.111       .  S
C391        H396   1.106       .  S
C391        H397   1.109       .  S
C394        H398   1.103       .  S
C394        H399   1.104       .  S
C394        H400   1.111       .  S
C401        C402   1.404       .  A
C401        C406   1.404       .  A
C401        H408   1.085       .  S
C402        C403   1.413       .  A
C403        C404   1.405       .  A
C403        C410   1.508       .  S
C404        C405   1.406       .  A
C404        H409   1.085       .  S
C405        C406   1.417       .  A
C406        C407   1.509       .  S
C407        H411   1.110       .  S
C407        H412   1.106       .  S
C407        H413   1.111       .  S
C410        H414   1.111       .  S
C410        H415   1.107       .  S
C410        H416   1.111       .  S
C417        C418   1.406       .  A
C417        C422   1.413       .  A
C417        H424   1.084       .  S
C418        C419   1.411       .  A
C419        C420   1.397       .  A
C419        C426   1.499       .  S
C420        C421   1.402   1_455  A
C420        H425   1.083   1_455  S
C421        C422   1.418   1_655  A
C422        C423   1.506   1_455  S
C423        H428   1.108   1_554  S
C423        H429   1.111       .  S
C423       H2635   1.111   1_655  S
C426        H430   1.110       .  S
C426        H431   1.108       .  S
C426       H1168   1.111       .  S
H427       C1159   1.111   1_455  S
H432       C2634   1.111       .  S
C433        C434   1.405       .  A
C433        C438   1.410       .  A
C433        H440   1.084       .  S
C434        C435   1.412       .  A
C435        C436   1.398       .  A
C435       C2650   1.502       .  S
C436        C437   1.403       .  A
C436        H441   1.085       .  S
C437        C438   1.418       .  A
C438        C439   1.504       .  S
C439        H443   1.111       .  S
C439        H444   1.106       .  S
C439        H445   1.104       .  S
C442       C1171   1.502       .  S
C442        H446   1.108       .  S
C442        H447   1.108       .  S
C442        H448   1.111       .  S
C449        C454   1.407       .  A
C449       C2658   1.403       .  A
C449        H456   1.084       .  S
C450        C831   1.482       .  S
C450        C451   1.415       .  A
C450       C1185   1.403       .  A
C451        C452   1.406       .  A
C451        C458   1.508       .  S
C452        C453   1.404       .  A
C452        H457   1.084       .  S
C453       C1190   1.415       .  A
C454       C2661   1.415   1_554  A
C454        C455   1.503       .  S
C455        H459   1.111       .  S
C455        H460   1.111       .  S
C455        H461   1.105       .  S
C458        H462   1.106       .  S
C458        H463   1.111       .  S
C458        H464   1.111       .  S
C465        C466   1.402       .  A
C465        C470   1.399       .  A
C465        H472   1.085       .  S
C466        C467   1.414       .  A
C467        C468   1.405       .  A
C467       C1210   1.506       .  S
C468        C469   1.403   1_455  A
C468       H1209   1.084   1_455  S
C469        C470   1.413   1_655  A
C470        C471   1.508   1_455  S
C471        H475   1.111   1_655  S
C471        H476   1.106       .  S
C471        H477   1.103       .  S
H473       C2676   1.084   1_655  S
C474       C2675   1.506   1_554  S
C474        H478   1.104       .  S
C474        H480   1.111       .  S
C474       H2687   1.110       .  S
H479       C1210   1.110       .  S
C481        C482   1.409       .  A
C481        C486   1.403       .  A
C481        H488   1.084       .  S
C482        C483   1.420       .  A
C483        C484   1.406       .  A
C483        C490   1.502       .  S
C484        C485   1.401       .  A
C484        H489   1.084       .  S
C485        C486   1.410       .  A
C486        C487   1.506       .  S
C487        H491   1.111       .  S
C487        H492   1.110       .  S
C487        H493   1.105       .  S
C490        H494   1.097       .  S
C490        H495   1.096       .  S
C490        H496   1.111       .  S
C497        C502   1.397       .  A
C497       C2706   1.400   1_554  A
C497        H504   1.085       .  S
C498        C499   1.414       .  A
C498       C1233   1.400       .  A
C499        C500   1.406       .  A
C499        C506   1.507       .  S
C500       C1237   1.406       .  A
C500        H505   1.085       .  S
C501        C502   1.413       .  A
C501       C2708   1.406   1_554  A
C502        C503   1.504       .  S
C503        H507   1.111       .  S
C503        H508   1.108       .  S
C503        H509   1.108       .  S
C506        H510   1.110       .  S
C506        H511   1.107       .  S
C506        H512   1.109       .  S
C513        C514   1.408       .  A
C513        C518   1.403       .  A
C513        H520   1.084       .  S
C514        C515   1.419       .  A
C515        C516   1.399       .  A
C515        C522   1.506   1_554  S
C516        C517   1.399       .  A
C516        H521   1.085   1_554  S
C517        C518   1.413       .  A
C518        C519   1.509       .  S
C519        H523   1.109       .  S
C519        H524   1.110       .  S
C519        H525   1.107       .  S
C522        H527   1.099       .  S
C522        H528   1.111       .  S
C522       H2734   1.103       .  S
H526       C1258   1.103       .  S
C529        C530   1.404       .  A
C529        C534   1.403       .  A
C529        H536   1.084       .  S
C530        C531   1.412       .  A
C531        C532   1.398       .  A
C531       C2746   1.510       .  S
C532        C533   1.404       .  A
C532        H537   1.084       .  S
C533        C534   1.412       .  A
C534        C535   1.508       .  S
C535        H539   1.111       .  S
C535        H540   1.107       .  S
C535        H541   1.109       .  S
C538       C1267   1.510       .  S
C538        H542   1.109       .  S
C538        H543   1.107       .  S
C538        H544   1.111       .  S
C545        C546   1.406       .  A
C545        C550   1.412   1_565  A
C545        H552   1.084       .  S
C546        C547   1.413   1_565  A
C547        C548   1.400       .  A
C547        C554   1.510   1_545  S
C548        C549   1.404       .  A
C548        H553   1.079       .  S
C549        C550   1.418       .  A
C550        C551   1.507       .  S
C551        H555   1.111       .  S
C551        H556   1.111       .  S
C551        H557   1.108       .  S
C554        H558   1.108       .  S
C554        H559   1.111       .  S
C554        H560   1.111   1_565  S
C561        C562   1.406       .  A
C561        C566   1.398       .  A
C561        H568   1.084       .  S
C562        C563   1.416       .  A
C563        C564   1.409       .  A
C563        C570   1.506       .  S
C564        C565   1.406   1_455  A
C564        H569   1.084   1_455  S
C565        C566   1.412   1_655  A
C566        C567   1.510   1_455  S
C567        H572   1.111   1_655  S
C567        H573   1.108       .  S
C567       H1307   1.111       .  S
C570        H574   1.109   1_554  S
C570        H575   1.111   1_554  S
C570       H2784   1.111       .  S
H571       C2775   1.111       .  S
H576       C1306   1.111       .  S
C577        C578   1.407       .  A
C577        C582   1.408       .  A
C577        H584   1.084       .  S
C578        C579   1.419       .  A
C579        C580   1.400       .  A
C579       C1322   1.510       .  S
C580        C581   1.400       .  A
C580        H585   1.085       .  S
C581        C582   1.414       .  A
C582        C583   1.506       .  S
C583        H587   1.111       .  S
C583        H588   1.106       .  S
C583        H589   1.109       .  S
C586       C2787   1.510   1_554  S
C586        H590   1.107       .  S
C586        H591   1.106       .  S
C586        H592   1.111       .  S
C593        C594   1.399       .  A
C593        C598   1.402   1_455  A
C593       H1336   1.083       .  S
C594        C595   1.414       .  A
C595        C596   1.404       .  A
C595        C602   1.506       .  S
C596        C597   1.403   1_455  A
C596        H601   1.084   1_455  S
C597        C598   1.412       .  A
C598       C1335   1.500       .  S
C599       C2806   1.500   1_554  S
C599        H603   1.111       .  S
C599        H604   1.104       .  S
C599        H605   1.111   1_554  S
H600       C2801   1.083   1_554  S
C602        H606   1.107       .  S
C602        H607   1.103       .  S
C602        H608   1.111       .  S
C609        C610   1.404       .  A
C609        C614   1.406       .  A
C609        H616   1.084       .  S
C610        C611   1.423   1_554  A
C611        C612   1.404       .  A
C611        C618   1.501       .  S
C612        C613   1.398       .  A
C612       H2825   1.085       .  S
C613        C614   1.416   1_556  A
C614        C615   1.507       .  S
C615        H619   1.111       .  S
C615        H620   1.105       .  S
C615        H621   1.109       .  S
H617       C1348   1.085       .  S
C618        H622   1.110       .  S
C618       H2831   1.100       .  S
C618       H2832   1.109       .  S
H623       C1354   1.100       .  S
H624       C1354   1.109       .  S
C625        C626   1.403   1_545  A
C625        C630   1.400       .  A
C625        H632   1.085   1_545  S
C626        C627   1.413   1_565  A
C627        C628   1.404       .  A
C627       C2842   1.501   1_544  S
C628        C629   1.400       .  A
C628       H2841   1.084   1_554  S
C629        C630   1.411       .  A
C630        C631   1.507       .  S
C631        H635   1.111       .  S
C631        H636   1.108       .  S
C631        H637   1.110       .  S
H633       C1364   1.084       .  S
C634       C1363   1.501   1_565  S
C634        H638   1.111       .  S
C634        H639   1.104       .  S
C634        H640   1.111   1_565  S
C641        C642   1.400       .  A
C641        C646   1.404       .  A
C641        H648   1.084       .  S
C642        C643   1.413       .  A
C643        C644   1.400       .  A
C643       C2858   1.509       .  S
C644        C645   1.403       .  A
C644       H2857   1.085       .  S
C645        C646   1.414       .  A
C646        C647   1.501       .  S
C647        H651   1.111       .  S
C647        H652   1.105       .  S
C647        H653   1.110       .  S
H649       C1380   1.084       .  S
C650       C1379   1.509       .  S
C650        H655   1.108       .  S
C650        H656   1.111       .  S
C650       H1390   1.111       .  S
H654       C2858   1.111       .  S
C657        C658   1.404       .  A
C657        C662   1.399       .  A
C657        H664   1.084       .  S
C658        C659   1.417       .  A
C659        C660   1.406       .  A
C659        C666   1.502       .  S
C660        C661   1.402       .  A
C660        H665   1.084       .  S
C661        C662   1.407       .  A
C662       C2871   1.496   1_554  S
C663       C1398   1.496       .  S
C663        H667   1.111       .  S
C663        H668   1.106       .  S
C663        H669   1.109       .  S
C666        H670   1.109       .  S
C666        H671   1.108       .  S
C666        H672   1.111       .  S
C673        C678   1.406       .  A
C673       C2882   1.403       .  A
C673        H680   1.084       .  S
C674        C675   1.412       .  A
C674       C1409   1.403       .  A
C675        C676   1.399       .  A
C675        C682   1.510       .  S
C676       C1413   1.406       .  A
C676        H681   1.084       .  S
C677        C678   1.417       .  A
C677       C2884   1.406       .  A
C678        C679   1.505       .  S
C679        H683   1.111       .  S
C679        H684   1.103       .  S
C679        H685   1.105       .  S
C682        H686   1.107       .  S
C682        H687   1.111       .  S
C682        H688   1.111       .  S
C689        C690   1.406       .  A
C689        C694   1.405       .  A
C689        H696   1.084       .  S
C690       C1427   1.418       .  A
C691        C692   1.404       .  A
C691       C2898   1.418   1_554  A
C691        C698   1.509       .  S
C692        C693   1.402       .  A
C692        H697   1.084       .  S
C693       C2902   1.412   1_554  A
C694       C1429   1.412       .  A
C694        C695   1.505       .  S
C695        H699   1.111       .  S
C695        H700   1.111       .  S
C695        H701   1.104       .  S
C698        H702   1.109       .  S
C698        H703   1.111       .  S
C698        H704   1.111       .  S
C705        C710   1.406       .  A
C705       C2914   1.404   1_554  A
C705        H712   1.084       .  S
C706        C707   1.412       .  A
C706       C1441   1.404       .  A
C707        C708   1.402       .  A
C707        C714   1.506       .  S
C708        C709   1.406       .  A
C708        H713   1.084       .  S
C709       C1446   1.416       .  A
C710       C2917   1.416   1_554  A
C710        C711   1.507       .  S
C711        H715   1.111       .  S
C711        H716   1.111       .  S
C711        H717   1.106       .  S
C714        H718   1.101       .  S
C714        H719   1.107       .  S
C714        H720   1.111       .  S
C721        C722   1.405       .  A
C721        C726   1.403       .  A
C721        H728   1.084       .  S
C722        C723   1.413       .  A
C723        C724   1.404       .  A
C723        C730   1.508       .  S
C724        C725   1.406       .  A
C724        H729   1.084       .  S
C725        C726   1.415       .  A
C726        C727   1.509       .  S
C727        H731   1.111       .  S
C727        H732   1.106       .  S
C727        H733   1.107       .  S
C730        H734   1.111       .  S
C730        H735   1.108       .  S
C730        H736   1.111       .  S
O737        C747   1.265       .  A
O737       V1481   1.904       .  S
O738        V745   1.902       .  S
O739        V745   1.895       .  S
O740        C750   1.262       .  A
O740       V1481   1.892       .  S
O741        C750   1.265       .  A
O741        V746   1.908       .  S
O742        C749   1.267       .  A
O742        V746   1.906       .  S
O743        C748   1.263       .  A
O743        V746   1.893       .  S
O744        C747   1.263       .  A
O744        V746   1.894       .  S
V746       V1481   2.081       .  T
C747       C1461   1.480       .  S
C748       O1474   1.264       .  A
C748       C1410   1.474       .  S
C749       O1475   1.263       .  A
C749       C1426   1.484       .  S
C750       C1442   1.477       .  S
O751        C761   1.268       .  A
O751        V759   1.911       .  S
O752        C762   1.266       .  A
O752        V759   1.910       .  S
O753        C763   1.260       .  A
O753        V759   1.886       .  S
O754        C764   1.263       .  A
O754        V759   1.887       .  S
O755        C764   1.267       .  A
O755        V760   1.910       .  S
O756        C763   1.265       .  A
O756        V760   1.905       .  S
O757        C762   1.260       .  A
O757        V760   1.885       .  S
O758        C761   1.261       .  A
O758        V760   1.888       .  S
V759        V760   2.081       .  T
C761       C1458   1.479       .  S
C762       C1362   1.475       .  S
C763       C1378   1.469       .  S
C764       C1394   1.485       .  S
O765       C1511   1.267       .  A
O765        V773   1.911       .  S
O766        C776   1.267       .  A
O766        V773   1.910       .  S
O767        C777   1.262       .  A
O767        V773   1.897       .  S
O768        C778   1.263       .  A
O768        V773   1.890       .  S
O769        V774   1.908       .  S
O770        V774   1.900       .  S
O771        V774   1.889       .  S
O772        C775   1.261       .  A
O772        V774   1.893       .  S
V773       V1510   2.084       .  T
C775       C1349   1.482       .  S
C776       O1507   1.261       .  A
C776       C1314   1.483       .  S
C777       O1506   1.263       .  A
C777       C1330   1.473       .  S
C778       O1505   1.266       .  A
C778       C1445   1.483       .  S
O779        C789   1.267       .  A
O779        V787   1.908       .  S
O780        C790   1.265       .  A
O780        V787   1.910       .  S
O781        C791   1.260       .  A
O781        V787   1.878       .  S
O782        C792   1.260       .  A
O782        V787   1.889       .  S
O783        C792   1.267       .  A
O783        V788   1.914       .  S
O784        C791   1.268       .  A
O784        V788   1.916       .  S
O785        C790   1.264       .  A
O785        V788   1.897       .  S
O786        C789   1.263       .  A
O786        V788   1.906       .  S
V787        V788   2.085       .  T
C789       C1346   1.490       .  S
C790       C1282   1.483       .  S
C791       C1298   1.483       .  S
C792       C1397   1.476       .  S
O793        C803   1.263       .  A
O793        V801   1.895       .  S
O794       C1540   1.264       .  A
O794       V1537   1.903       .  S
O795        C805   1.260       .  A
O795        V801   1.884       .  S
O796        C806   1.263       .  A
O796        V801   1.888       .  S
O797        C806   1.265       .  A
O797        V802   1.908       .  S
O798        C805   1.266       .  A
O798        V802   1.906       .  S
O799        C804   1.263       .  A
O799        V802   1.895       .  S
O800        C803   1.262       .  A
O800        V802   1.892       .  S
V801        V802   2.087       .  T
C803       C1266   1.469       .  S
C804       C1237   1.477       .  S
C805       C1253   1.468       .  S
C806       C1413   1.484       .  S
O807        C817   1.265       .  A
O807        V815   1.904       .  S
O808        C818   1.264       .  A
O808        V815   1.904       .  S
O809        C819   1.261       .  A
O809        V815   1.892       .  S
O810        C820   1.263       .  A
O810        V815   1.890       .  S
O811        C820   1.265       .  A
O811        V816   1.909       .  S
O812        C819   1.266       .  A
O812        V816   1.908       .  S
O813        C818   1.262       .  A
O813        V816   1.888       .  S
O814        C817   1.260       .  A
O814        V816   1.882       .  S
V815        V816   2.085       .  T
C817       C1269   1.470       .  S
C818       C1202   1.475       .  S
C819       C1221   1.477       .  S
C820       C1317   1.477       .  S
O821        C831   1.265       .  A
O821        V829   1.906       .  S
O822        C832   1.265       .  A
O822        V829   1.907       .  S
O823        C833   1.266       .  A
O823        V829   1.901       .  S
O824        C834   1.262       .  A
O824        V829   1.894       .  S
O825       C1570   1.263       .  A
O825        V830   1.899       .  S
O826       C1569   1.262       .  A
O826        V830   1.893       .  S
O827       C1568   1.265       .  A
O827        V830   1.902       .  S
O828       C1567   1.264       .  A
O828        V830   1.903       .  S
V830       V1565   2.085       .  T
C832       C1170   1.485       .  S
C833       C1250   1.485       .  S
C834       C1365   1.468       .  S
O835        C845   1.264       .  A
O835        V843   1.902       .  S
O836        C846   1.265       .  A
O836        V843   1.910       .  S
O837        C847   1.264       .  A
O837        V843   1.890       .  S
O838        C848   1.264       .  A
O838        V843   1.894       .  S
O839        C848   1.267       .  A
O839        V844   1.915       .  S
O840        C847   1.267       .  A
O840        V844   1.917       .  S
O841        C846   1.265       .  A
O841        V844   1.903       .  S
O842        C845   1.266       .  A
O842        V844   1.909       .  S
V843        V844   2.084       .  T
C845       C1189   1.485       .  S
C846       C1154   1.486       .  S
C847       C1218   1.494       .  S
C848       C1285   1.491       .  S
O849        C859   1.265       .  A
O849       V1593   1.903       .  S
O850        V857   1.906       .  S
O851        V857   1.886       .  S
O852        C862   1.264       .  A
O852       V1593   1.889       .  S
O853        C862   1.264       .  A
O853        V858   1.903       .  S
O854        C861   1.265       .  A
O854        V858   1.906       .  S
O855        C860   1.264       .  A
O855        V858   1.900       .  S
O856        C859   1.264       .  A
O856        V858   1.900       .  S
V858       V1593   2.086       .  T
C859       C1138   1.481       .  S
C860       O1586   1.265       .  A
C860       C1109   1.481       .  S
C861       O1587   1.261       .  A
C861       C1234   1.468       .  S
C862       C1122   1.483       .  S
O863        C873   1.266       .  A
O863        V871   1.906       .  S
O864        C874   1.265       .  A
O864        V871   1.906       .  S
O865        C875   1.264       .  A
O865        V871   1.890       .  S
O866        C876   1.261       .  A
O866        V871   1.891       .  S
O867        C876   1.267       .  A
O867        V872   1.913       .  S
O868        C875   1.266       .  A
O868        V872   1.913       .  S
O869        C874   1.263       .  A
O869        V872   1.897       .  S
O870        C873   1.263       .  A
O870        V872   1.897       .  S
V871        V872   2.086       .  T
C873       C1141   1.481       .  S
C874       C1074   1.481       .  S
C875       C1173   1.488       .  S
C876       C1093   1.480       .  S
O877       C1623   1.268       .  A
O877        V885   1.912       .  S
O878        C888   1.266       .  A
O878        V885   1.909       .  S
O879        C889   1.260       .  A
O879        V885   1.890       .  S
O880        C890   1.261       .  A
O880        V885   1.891       .  S
O881        V886   1.908       .  S
O882        V886   1.902       .  S
O883        V886   1.889       .  S
O884        C887   1.260       .  A
O884        V886   1.887       .  S
V885       V1622   2.086       .  T
C887       C1058   1.481       .  S
C888       O1619   1.261       .  A
C888       C1045   1.478       .  S
C889       O1618   1.265       .  A
C889       C1205   1.472       .  S
C890       O1617   1.266       .  A
C890       C1125   1.475       .  S
O891        C901   1.263       .  A
O891        V899   1.892       .  S
O892        C902   1.263       .  A
O892        V899   1.903       .  S
O893        C903   1.264       .  A
O893        V899   1.891       .  S
O894        C904   1.264       .  A
O894        V899   1.893       .  S
O895        C904   1.268       .  A
O895        V900   1.918       .  S
O896        C903   1.266       .  A
O896        V900   1.913       .  S
O897        C902   1.263       .  A
O897        V900   1.893       .  S
O898        C901   1.263       .  A
O898        V900   1.902       .  S
V899        V900   2.084       .  T
C901       C1061   1.475       .  S
C902       C1029   1.474       .  S
C903       C1157   1.488       .  S
C904       C1090   1.494       .  S
O905        C915   1.267       .  A
O905        V913   1.910       .  S
O906       C1652   1.265       .  A
O906       V1649   1.908       .  S
O907        C917   1.261       .  A
O907        V913   1.890       .  S
O908        C918   1.262       .  A
O908        V913   1.884       .  S
O909        C918   1.268       .  A
O909        V914   1.916       .  S
O910        C917   1.266       .  A
O910        V914   1.909       .  S
O911        C916   1.262       .  A
O911        V914   1.894       .  S
O912        C915   1.261       .  A
O912        V914   1.892       .  S
V913        V914   2.086       .  T
C915       C1013   1.477       .  S
C916       C1429   1.478       .  S
C917        C994   1.476       .  S
C918       C1106   1.487       .  S
O919        C929   1.266       .  A
O919        V927   1.907       .  S
O920        C930   1.266       .  A
O920        V927   1.907       .  S
O921        C931   1.261       .  A
O921        V927   1.884       .  S
O922        C932   1.261       .  A
O922        V927   1.888       .  S
O923        C932   1.265       .  A
O923        V928   1.909       .  S
O924        C931   1.268       .  A
O924        V928   1.914       .  S
O925        C930   1.261       .  A
O925        V928   1.894       .  S
O926        C929   1.262       .  A
O926        V928   1.894       .  S
V927        V928   2.085       .  T
C929       C1010   1.477       .  S
C930       C1333   1.479       .  S
C931        C981   1.485       .  S
C932       C1042   1.474       .  S
O933        C943   1.266       .  A
O933        V941   1.901       .  S
O934        C944   1.265       .  A
O934        V941   1.906       .  S
O935        C945   1.262       .  A
O935        V941   1.892       .  S
O936        C946   1.263       .  A
O936        V941   1.893       .  S
O937       C1682   1.266       .  A
O937        V942   1.910       .  S
O938       C1681   1.268       .  A
O938        V942   1.912       .  S
O939        C944   1.262       .  A
O940       C1679   1.261       .  A
O940        V942   1.892       .  S
V942       O1675   1.891       .  S
V942       V1677   2.084       .  T
C944       C1381   1.478       .  S
C945        C997   1.488       .  S
C946       C1077   1.477       .  S
O947        C957   1.265       .  A
O947        V955   1.897       .  S
O948        C958   1.263       .  A
O948        V955   1.901       .  S
O949        C959   1.260       .  A
O949        V955   1.889       .  S
O950        C960   1.261       .  A
O950        V955   1.878       .  S
O951        C960   1.266       .  A
O951        V956   1.911       .  S
O952        C959   1.266       .  A
O952        V956   1.907       .  S
O953        C958   1.264       .  A
O953        V956   1.895       .  S
O954        C957   1.262       .  A
O954        V956   1.899       .  S
V955        V956   2.086       .  T
C957        C962   1.478       .  S
C958       C1301   1.476       .  S
C959        C978   1.472       .  S
C960       C1026   1.477       .  S
C961        C962   1.403       .  A
C961        C966   1.400       .  A
C961        H968   1.085       .  S
C962       C1699   1.418       .  A
C963        C964   1.401       .  A
C963        C970   1.505       .  S
C964        H969   1.085       .  S
C965       C1679   1.474       .  S
C965       C1700   1.401       .  A
C965        C966   1.416       .  A
C966        C967   1.507       .  S
C967        H971   1.108       .  S
C967        H972   1.110       .  S
C967        H973   1.104       .  S
C970        H974   1.102       .  S
C970        H975   1.110       .  S
C970        H976   1.108       .  S
C977        C978   1.401       .  A
C977        C982   1.403       .  A
C977        H984   1.085       .  S
C978        C979   1.408       .  A
C979        C980   1.400       .  A
C979        C986   1.501       .  S
C980        C981   1.406       .  A
C980        H985   1.084       .  S
C981        C982   1.415       .  A
C982        C983   1.499       .  S
C983        H987   1.111       .  S
C983        H988   1.108       .  S
C983        H989   1.108       .  S
C986        H990   1.110       .  S
C986        H991   1.107       .  S
C986        H992   1.111       .  S
C993        C994   1.401       .  A
C993        C998   1.403       .  A
C993       H1000   1.085       .  S
C994        C995   1.410       .  A
C995        C996   1.405       .  A
C995       C1002   1.506       .  S
C996        C997   1.408       .  A
C996       H1001   1.084       .  S
C997        C998   1.416       .  A
C998        C999   1.502       .  S
C999       H1003   1.111       .  S
C999       H1005   1.109       .  S
C1002      H1006   1.110       .  S
C1002      H1007   1.105       .  S
C1002      H1008   1.111       .  S
H1004      C1735   1.107       .  S
C1009      C1010   1.404       .  A
C1009      C1014   1.405       .  A
C1009      H1016   1.084       .  S
C1010      C1011   1.413       .  A
C1011      C1012   1.405       .  A
C1011      C1018   1.508       .  S
C1012      C1013   1.404       .  A
C1012      H1017   1.084       .  S
C1013      C1014   1.413       .  A
C1015      C1750   1.507       .  S
C1015      H1019   1.111       .  S
C1015      H1020   1.108       .  S
C1015      H1021   1.110       .  S
C1018      H1022   1.110       .  S
C1018      H1023   1.107       .  S
C1018      H1024   1.111       .  S
C1025      C1026   1.402       .  A
C1025      C1030   1.393   1_565  A
C1025      H1032   1.085       .  S
C1026      C1027   1.415   1_565  A
C1027      C1028   1.410       .  A
C1027      C1034   1.506   1_545  S
C1028      C1029   1.406       .  A
C1028      H1033   1.084       .  S
C1029      C1030   1.409       .  A
C1030      C1031   1.503       .  S
C1031      H1035   1.111       .  S
C1031      H1036   1.109       .  S
C1031      H1037   1.110       .  S
C1034      H1038   1.111       .  S
C1034      H1775   1.109       .  S
C1034      H1040   1.111   1_565  S
C1041      C1042   1.401       .  A
C1041      C1046   1.400       .  A
C1041      H1048   1.085       .  S
C1042      C1043   1.411       .  A
C1043      C1044   1.407       .  A
C1043      C1050   1.506       .  S
C1044      C1045   1.406       .  A
C1044      H1049   1.084       .  S
C1045      C1046   1.417       .  A
C1046      C1047   1.511       .  S
C1047      H1051   1.111       .  S
C1047      H1052   1.106       .  S
C1047      H1789   1.106       .  S
C1050      H1054   1.107       .  S
C1050      H1055   1.111       .  S
C1050      H1056   1.111       .  S
C1057      C1794   1.406       .  A
C1057      C1798   1.408       .  A
C1057      H1064   1.084       .  S
C1058      C1059   1.420       .  A
C1059      C1060   1.396       .  A
C1059      C1066   1.505       .  S
C1060      C1061   1.398       .  A
C1060      H1065   1.086       .  S
C1061      C1062   1.414       .  A
C1063      C1798   1.507       .  S
C1063      H1067   1.111       .  S
C1063      H1068   1.103       .  S
C1063      H1069   1.111       .  S
C1066      H1070   1.110       .  S
C1066      H1071   1.099       .  S
C1066      H1072   1.109       .  S
C1073      C1074   1.405       .  A
C1073      C1078   1.407       .  A
C1073      H1080   1.084       .  S
C1074      C1075   1.414       .  A
C1075      C1076   1.400       .  A
C1075      C1082   1.505       .  S
C1076      C1077   1.401   1_545  A
C1076      H1081   1.085   1_545  S
C1077      C1078   1.413   1_565  A
C1078      C1079   1.503       .  S
C1079      H1083   1.111       .  S
C1079      H1085   1.110   1_545  S
C1082      H1086   1.107       .  S
C1082      H1087   1.108       .  S
C1082      H1088   1.111       .  S
H1084      C1815   1.108   1_565  S
C1089      C1090   1.409       .  A
C1089      C1094   1.405       .  A
C1089      H1096   1.084       .  S
C1090      C1091   1.418       .  A
C1091      C1092   1.407       .  A
C1092      C1093   1.403       .  A
C1092      H1097   1.085       .  S
C1093      C1094   1.410       .  A
C1094      C1095   1.506       .  S
C1095      H1099   1.111       .  S
C1095      H1100   1.105       .  S
C1095      H1101   1.111       .  S
C1098      C1827   1.504       .  S
C1098      H1102   1.101       .  S
C1098      H1103   1.102       .  S
C1098      H1104   1.111       .  S
C1105      C1106   1.406       .  A
C1105      C1110   1.398       .  A
C1105      H1112   1.084       .  S
C1106      C1107   1.421       .  A
C1107      C1108   1.409       .  A
C1107      C1114   1.506       .  S
C1108      H1113   1.085       .  S
C1109      C1844   1.404       .  A
C1109      C1846   1.410       .  A
C1111      C1846   1.504       .  S
C1111      H1851   1.111       .  S
C1111      H1116   1.108       .  S
C1111      H1853   1.108       .  S
C1114      H1118   1.101       .  S
C1114      H1119   1.110       .  S
C1114      H1120   1.111       .  S
C1121      C1126   1.398       .  A
C1121      H1128   1.084       .  S
C1122      C1857   1.405       .  A
C1122      C1123   1.418       .  A
C1123      C1124   1.405       .  A
C1123      C1130   1.505       .  S
C1124      C1125   1.402       .  A
C1124      H1129   1.085       .  S
C1125      C1862   1.408       .  A
C1126      C1127   1.499       .  S
C1127      H1131   1.111       .  S
C1127      H1132   1.106       .  S
C1127      H1133   1.109       .  S
C1130      H1134   1.103       .  S
C1130      H1135   1.104       .  S
C1130      H1136   1.111       .  S
C1137      C1138   1.404       .  A
C1137      C1142   1.404       .  A
C1137      H1144   1.085       .  S
C1138      C1139   1.413       .  A
C1139      C1140   1.405       .  A
C1139      C1146   1.508       .  S
C1140      C1141   1.406       .  A
C1140      H1145   1.085       .  S
C1141      C1142   1.417       .  A
C1142      C1143   1.509       .  S
C1143      H1147   1.110       .  S
C1143      H1148   1.106       .  S
C1143      H1149   1.111       .  S
C1146      H1150   1.111       .  S
C1146      H1151   1.107       .  S
C1146      H1152   1.111       .  S
C1153      C1154   1.406       .  A
C1153      C1158   1.413       .  A
C1153      H1160   1.084       .  S
C1154      C1155   1.411       .  A
C1155      C1156   1.397       .  A
C1155      C1162   1.499       .  S
C1156      C1157   1.402   1_455  A
C1156      H1161   1.083   1_455  S
C1157      C1158   1.418   1_655  A
C1158      C1159   1.506   1_455  S
C1159      H1164   1.108       .  S
C1159      H1165   1.111       .  S
C1162      H1166   1.110       .  S
C1162      H1167   1.108       .  S
C1162      H1904   1.111       .  S
H1163      C1895   1.111   1_455  S
C1169      C1170   1.405       .  A
C1169      C1174   1.410       .  A
C1169      H1176   1.084       .  S
C1170      C1171   1.412       .  A
C1171      C1172   1.398       .  A
C1172      C1173   1.403       .  A
C1172      H1177   1.085       .  S
C1173      C1174   1.418       .  A
C1174      C1175   1.504       .  S
C1175      H1179   1.111       .  S
C1175      H1180   1.106       .  S
C1175      H1181   1.104       .  S
C1178      C1907   1.502       .  S
C1178      H1182   1.108       .  S
C1178      H1183   1.108       .  S
C1178      H1184   1.111       .  S
C1185      C1190   1.407       .  A
C1185      H1192   1.084       .  S
C1186      C1567   1.482       .  S
C1186      C1921   1.403       .  A
C1186      C1187   1.415       .  A
C1187      C1188   1.406       .  A
C1187      C1194   1.508       .  S
C1188      C1189   1.404       .  A
C1188      H1193   1.084       .  S
C1189      C1926   1.415       .  A
C1190      C1191   1.503       .  S
C1191      H1195   1.111       .  S
C1191      H1196   1.111       .  S
C1191      H1197   1.105       .  S
C1194      H1198   1.105       .  S
C1194      H1199   1.111       .  S
C1194      H1200   1.111       .  S
C1201      C1202   1.402       .  A
C1201      C1206   1.399       .  A
C1201      H1208   1.085       .  S
C1202      C1203   1.414       .  A
C1203      C1204   1.405       .  A
C1203      C1946   1.506       .  S
C1204      C1205   1.403   1_455  A
C1204      H1945   1.084   1_455  S
C1205      C1206   1.413   1_655  A
C1206      C1207   1.507   1_455  S
C1207      H1211   1.111   1_655  S
C1207      H1212   1.106       .  S
C1207      H1213   1.103       .  S
C1210      H1214   1.104       .  S
C1210      H1216   1.111       .  S
H1215      C1946   1.110       .  S
C1217      C1218   1.409       .  A
C1217      C1222   1.403       .  A
C1217      H1224   1.084       .  S
C1218      C1219   1.420       .  A
C1219      C1220   1.406       .  A
C1219      C1226   1.502       .  S
C1220      C1221   1.400       .  A
C1220      H1225   1.084       .  S
C1221      C1222   1.410       .  A
C1222      C1223   1.506       .  S
C1223      H1227   1.111       .  S
C1223      H1228   1.110       .  S
C1223      H1229   1.105       .  S
C1226      H1230   1.097       .  S
C1226      H1231   1.096       .  S
C1226      H1232   1.111       .  S
C1233      C1238   1.398       .  A
C1233      H1240   1.085       .  S
C1234      C1969   1.400       .  A
C1234      C1235   1.414       .  A
C1235      C1236   1.406       .  A
C1235      C1242   1.508       .  S
C1236      C1973   1.405       .  A
C1236      H1241   1.085       .  S
C1237      C1238   1.413       .  A
C1238      C1239   1.504       .  S
C1239      H1243   1.111       .  S
C1239      H1244   1.108       .  S
C1239      H1245   1.108       .  S
C1242      H1246   1.110       .  S
C1242      H1247   1.107       .  S
C1242      H1248   1.109       .  S
C1249      C1250   1.408       .  A
C1249      C1254   1.403       .  A
C1249      H1256   1.084       .  S
C1250      C1251   1.419       .  A
C1251      C1252   1.399       .  A
C1251      C1258   1.506       .  S
C1252      C1253   1.399       .  A
C1252      H1257   1.085       .  S
C1253      C1254   1.413       .  A
C1254      C1255   1.509       .  S
C1255      H1259   1.109       .  S
C1255      H1260   1.110       .  S
C1255      H1261   1.107       .  S
C1258      H1263   1.099       .  S
C1258      H1264   1.111       .  S
H1262      C1994   1.103       .  S
C1265      C1266   1.404       .  A
C1265      C1270   1.403       .  A
C1265      H1272   1.084       .  S
C1266      C1267   1.412       .  A
C1267      C1268   1.398       .  A
C1268      C1269   1.404       .  A
C1268      H1273   1.084       .  S
C1269      C1270   1.413       .  A
C1270      C1271   1.508       .  S
C1271      H1275   1.111       .  S
C1271      H1276   1.107       .  S
C1271      H1277   1.109       .  S
C1274      C2003   1.510       .  S
C1274      H1278   1.109       .  S
C1274      H1279   1.107       .  S
C1274      H1280   1.111       .  S
C1281      C1282   1.406       .  A
C1281      C1286   1.412   1_565  A
C1281      H1288   1.084       .  S
C1282      C1283   1.413   1_565  A
C1283      C1284   1.400       .  A
C1283      C1290   1.510   1_545  S
C1284      C1285   1.404       .  A
C1284      H1289   1.079       .  S
C1285      C1286   1.418       .  A
C1286      C1287   1.507       .  S
C1287      H1291   1.111       .  S
C1287      H1292   1.111       .  S
C1287      H1293   1.108       .  S
C1290      H1294   1.108       .  S
C1290      H1295   1.111       .  S
C1290      H1296   1.111   1_565  S
C1297      C1298   1.406       .  A
C1297      C1302   1.398       .  A
C1297      H1304   1.084       .  S
C1298      C1299   1.416       .  A
C1299      C1300   1.409       .  A
C1299      C1306   1.506       .  S
C1300      C1301   1.406   1_455  A
C1300      H1305   1.084   1_455  S
C1301      C1302   1.412   1_655  A
C1302      C1303   1.510   1_455  S
C1303      H2043   1.111       .  S
C1303      H1308   1.111   1_655  S
C1303      H1309   1.108       .  S
C1306      H1310   1.109       .  S
C1306      H1311   1.111       .  S
H1312      C2042   1.111       .  S
C1313      C1314   1.407       .  A
C1313      C1318   1.408       .  A
C1313      H1320   1.084       .  S
C1314      C1315   1.419       .  A
C1315      C1316   1.400       .  A
C1315      C2058   1.510       .  S
C1316      C1317   1.400       .  A
C1316      H1321   1.085       .  S
C1317      C1318   1.413       .  A
C1318      C1319   1.506       .  S
C1319      H1323   1.111       .  S
C1319      H1324   1.106       .  S
C1319      H1325   1.109       .  S
C1322      H1326   1.107       .  S
C1322      H1327   1.106       .  S
C1322      H1328   1.111       .  S
C1329      C1330   1.398       .  A
C1329      C1334   1.402   1_455  A
C1329      H2072   1.083       .  S
C1330      C1331   1.414       .  A
C1331      C1332   1.404       .  A
C1331      C1338   1.506       .  S
C1332      C1333   1.403   1_455  A
C1332      H1337   1.084   1_455  S
C1333      C1334   1.412       .  A
C1334      C2071   1.500       .  S
C1335      H1339   1.111       .  S
C1335      H1340   1.104       .  S
C1335      H1341   1.111       .  S
C1338      H1342   1.107       .  S
C1338      H1343   1.103       .  S
C1338      H1344   1.111       .  S
C1345      C1346   1.404       .  A
C1345      C1350   1.406       .  A
C1345      H1352   1.084       .  S
C1346      C1347   1.423       .  A
C1347      C1348   1.404       .  A
C1347      C1354   1.501       .  S
C1348      C1349   1.398       .  A
C1349      C1350   1.416       .  A
C1350      C1351   1.507       .  S
C1351      H1355   1.111       .  S
C1351      H1356   1.105       .  S
C1351      H1357   1.109       .  S
H1353      C2084   1.085       .  S
C1354      H1358   1.110       .  S
H1359      C2090   1.100       .  S
H1360      C2090   1.109       .  S
C1361      C1362   1.403   1_545  A
C1361      C1366   1.400       .  A
C1361      H1368   1.085   1_545  S
C1362      C1363   1.413   1_565  A
C1363      C1364   1.404       .  A
C1364      C1365   1.400       .  A
C1365      C1366   1.411       .  A
C1366      C1367   1.507       .  S
C1367      H1371   1.111       .  S
C1367      H1372   1.108       .  S
C1367      H1373   1.110       .  S
H1369      C2100   1.084       .  S
C1370      C2099   1.501   1_565  S
C1370      H1374   1.111       .  S
C1370      H1375   1.104       .  S
C1370      H1376   1.111   1_565  S
C1377      C1378   1.400       .  A
C1377      C1382   1.404       .  A
C1377      H1384   1.084       .  S
C1378      C1379   1.413       .  A
C1379      C1380   1.401       .  A
C1380      C1381   1.403       .  A
C1381      C1382   1.414       .  A
C1382      C1383   1.501       .  S
C1383      H1387   1.111       .  S
C1383      H1388   1.105       .  S
C1383      H1389   1.110       .  S
H1385      C2116   1.084       .  S
C1386      C2115   1.509       .  S
C1386      H2126   1.111       .  S
C1386      H1391   1.108       .  S
C1386      H1392   1.111       .  S
C1393      C1394   1.404       .  A
C1393      C1398   1.399       .  A
C1393      H1400   1.084       .  S
C1394      C1395   1.417       .  A
C1395      C1396   1.406       .  A
C1395      C1402   1.502       .  S
C1396      C1397   1.402       .  A
C1396      H1401   1.085       .  S
C1397      C1398   1.407       .  A
C1399      C2134   1.496       .  S
C1399      H1403   1.111       .  S
C1399      H1404   1.106       .  S
C1399      H1405   1.110       .  S
C1402      H1406   1.109       .  S
C1402      H1407   1.108       .  S
C1402      H1408   1.111       .  S
C1409      C1414   1.406       .  A
C1409      H1416   1.084       .  S
C1410      C2145   1.403       .  A
C1410      C1411   1.412       .  A
C1411      C1412   1.399       .  A
C1411      C1418   1.510       .  S
C1412      C2149   1.406       .  A
C1412      H1417   1.084       .  S
C1413      C1414   1.417       .  A
C1414      C1415   1.504       .  S
C1415      H1419   1.111       .  S
C1415      H1420   1.103       .  S
C1415      H1421   1.105       .  S
C1418      H1422   1.107       .  S
C1418      H1423   1.111       .  S
C1418      H1424   1.111       .  S
C1425      C1426   1.406       .  A
C1425      C1430   1.405       .  A
C1425      H1432   1.084       .  S
C1426      C2163   1.418       .  A
C1427      C1428   1.404       .  A
C1427      C1434   1.509       .  S
C1428      C1429   1.402       .  A
C1428      H1433   1.084       .  S
C1430      C2165   1.412       .  A
C1430      C1431   1.505       .  S
C1431      H1435   1.111       .  S
C1431      H1436   1.111       .  S
C1431      H1437   1.104       .  S
C1434      H1438   1.109       .  S
C1434      H1439   1.111       .  S
C1434      H1440   1.111       .  S
C1441      C1446   1.406       .  A
C1441      H1448   1.084       .  S
C1442      C2177   1.404       .  A
C1442      C1443   1.412       .  A
C1443      C1444   1.402       .  A
C1443      C1450   1.506       .  S
C1444      C1445   1.406       .  A
C1444      H1449   1.084       .  S
C1445      C2182   1.416       .  A
C1446      C1447   1.508       .  S
C1447      H1451   1.111       .  S
C1447      H1452   1.111       .  S
C1447      H1453   1.106       .  S
C1450      H1454   1.101       .  S
C1450      H1455   1.107       .  S
C1450      H1456   1.111       .  S
C1457      C1458   1.405       .  A
C1457      C1462   1.403       .  A
C1457      H1464   1.084       .  S
C1458      C1459   1.413       .  A
C1459      C1460   1.404       .  A
C1459      C1466   1.508       .  S
C1460      C1461   1.406       .  A
C1460      H1465   1.084       .  S
C1461      C1462   1.416       .  A
C1462      C1463   1.509       .  S
C1463      H1467   1.111       .  S
C1463      H1468   1.106       .  S
C1463      H1469   1.107       .  S
C1466      H1470   1.111       .  S
C1466      H1471   1.108       .  S
C1466      H1472   1.111       .  S
O1473      C1483   1.265       .  A
O1473      V2217   1.904       .  S
O1474      V1481   1.901       .  S
O1475      V1481   1.895       .  S
O1476      C1486   1.262       .  A
O1476      V2217   1.892       .  S
O1477      C1486   1.265       .  A
O1477      V1482   1.908       .  S
O1478      C1485   1.267       .  A
O1478      V1482   1.906       .  S
O1479      C1484   1.263       .  A
O1479      V1482   1.892       .  S
O1480      C1483   1.263       .  A
O1480      V1482   1.894       .  S
V1482      V2217   2.081       .  T
C1483      C2197   1.480       .  S
C1484      O2210   1.264       .  A
C1484      C2146   1.474       .  S
C1485      O2211   1.263       .  A
C1485      C2162   1.484       .  S
C1486      C2178   1.478       .  S
O1487      C1497   1.267       .  A
O1487      V1495   1.910       .  S
O1488      C1498   1.266       .  A
O1488      V1495   1.910       .  S
O1489      C1499   1.260       .  A
O1489      V1495   1.886       .  S
O1490      C1500   1.262       .  A
O1490      V1495   1.887       .  S
O1491      C1500   1.267       .  A
O1491      V1496   1.910       .  S
O1492      C1499   1.265       .  A
O1492      V1496   1.905       .  S
O1493      C1498   1.260       .  A
O1493      V1496   1.885       .  S
O1494      C1497   1.261       .  A
O1494      V1496   1.888       .  S
V1495      V1496   2.081       .  T
C1497      C2194   1.479       .  S
C1498      C2098   1.475       .  S
C1499      C2114   1.469       .  S
C1500      C2130   1.485       .  S
O1501      C2247   1.267       .  A
O1501      V1509   1.911       .  S
O1502      C1512   1.267       .  A
O1502      V1509   1.910       .  S
O1503      C1513   1.262       .  A
O1503      V1509   1.897       .  S
O1504      C1514   1.262       .  A
O1504      V1509   1.890       .  S
O1505      V1510   1.908       .  S
O1506      V1510   1.900       .  S
O1507      V1510   1.889       .  S
O1508      C1511   1.261       .  A
O1508      V1510   1.893       .  S
V1509      V2246   2.084       .  T
C1511      C2085   1.482       .  S
C1512      O2243   1.261       .  A
C1512      C2050   1.483       .  S
C1513      O2242   1.264       .  A
C1513      C2066   1.473       .  S
C1514      O2241   1.266       .  A
C1514      C2181   1.483       .  S
O1515      C1525   1.267       .  A
O1515      V1523   1.908       .  S
O1516      C1526   1.265       .  A
O1516      V1523   1.910       .  S
O1517      C1527   1.260       .  A
O1517      V1523   1.878       .  S
O1518      C1528   1.260       .  A
O1518      V1523   1.889       .  S
O1519      C1528   1.267       .  A
O1519      V1524   1.914       .  S
O1520      C1527   1.268       .  A
O1520      V1524   1.916       .  S
O1521      C1526   1.264       .  A
O1521      V1524   1.897       .  S
O1522      C1525   1.263       .  A
O1522      V1524   1.906       .  S
V1523      V1524   2.085       .  T
C1525      C2082   1.490       .  S
C1526      C2018   1.483       .  S
C1527      C2034   1.483       .  S
C1528      C2133   1.476       .  S
O1529      C1539   1.263       .  A
O1529      V1537   1.895       .  S
O1530      C2276   1.264       .  A
O1530      V2273   1.903       .  S
O1531      C1541   1.260       .  A
O1531      V1537   1.884       .  S
O1532      C1542   1.264       .  A
O1532      V1537   1.888       .  S
O1533      C1542   1.265       .  A
O1533      V1538   1.907       .  S
O1534      C1541   1.266       .  A
O1534      V1538   1.906       .  S
O1535      C1540   1.263       .  A
O1535      V1538   1.895       .  S
O1536      C1539   1.262       .  A
O1536      V1538   1.892       .  S
V1537      V1538   2.087       .  T
C1539      C2002   1.469       .  S
C1540      C1973   1.476       .  S
C1541      C1989   1.468       .  S
C1542      C2149   1.484       .  S
O1543      C1553   1.265       .  A
O1543      V1551   1.904       .  S
O1544      C1554   1.264       .  A
O1544      V1551   1.904       .  S
O1545      C1555   1.261       .  A
O1545      V1551   1.891       .  S
O1546      C1556   1.263       .  A
O1546      V1551   1.890       .  S
O1547      C1556   1.265       .  A
O1547      V1552   1.909       .  S
O1548      C1555   1.266       .  A
O1548      V1552   1.908       .  S
O1549      C1554   1.262       .  A
O1549      V1552   1.888       .  S
O1550      C1553   1.260       .  A
O1550      V1552   1.882       .  S
V1551      V1552   2.086       .  T
C1553      C2005   1.470       .  S
C1554      C1938   1.475       .  S
C1555      C1957   1.477       .  S
C1556      C2053   1.477       .  S
O1557      C1567   1.265       .  A
O1557      V1565   1.906       .  S
O1558      C1568   1.265       .  A
O1558      V1565   1.907       .  S
O1559      C1569   1.266       .  A
O1559      V1565   1.900       .  S
O1560      C1570   1.262       .  A
O1560      V1565   1.894       .  S
O1561      C2306   1.263       .  A
O1561      V1566   1.899       .  S
O1562      C2305   1.262       .  A
O1562      V1566   1.894       .  S
O1563      C2304   1.265       .  A
O1563      V1566   1.903       .  S
O1564      C2303   1.264       .  A
O1564      V1566   1.903       .  S
V1566      V2301   2.085       .  T
C1568      C1906   1.484       .  S
C1569      C1986   1.484       .  S
C1570      C2101   1.468       .  S
O1571      C1581   1.264       .  A
O1571      V1579   1.902       .  S
O1572      C1582   1.265       .  A
O1572      V1579   1.910       .  S
O1573      C1583   1.264       .  A
O1573      V1579   1.890       .  S
O1574      C1584   1.264       .  A
O1574      V1579   1.893       .  S
O1575      C1584   1.267       .  A
O1575      V1580   1.915       .  S
O1576      C1583   1.267       .  A
O1576      V1580   1.918       .  S
O1577      C1582   1.265       .  A
O1577      V1580   1.904       .  S
O1578      C1581   1.266       .  A
O1578      V1580   1.909       .  S
V1579      V1580   2.084       .  T
C1581      C1925   1.486       .  S
C1582      C1890   1.486       .  S
C1583      C1954   1.494       .  S
C1584      C2021   1.491       .  S
O1585      C1595   1.265       .  A
O1585      V2329   1.903       .  S
O1586      V1593   1.907       .  S
O1587      V1593   1.886       .  S
O1588      C1598   1.264       .  A
O1588      V2329   1.889       .  S
O1589      C1598   1.264       .  A
O1589      V1594   1.903       .  S
O1590      C1597   1.265       .  A
O1590      V1594   1.906       .  S
O1591      C1596   1.264       .  A
O1591      V1594   1.899       .  S
O1592      C1595   1.264       .  A
O1592      V1594   1.900       .  S
V1594      V2329   2.086       .  T
C1595      C1874   1.480       .  S
C1596      O2322   1.265       .  A
C1596      C1845   1.480       .  S
C1597      O2323   1.261       .  A
C1597      C1970   1.468       .  S
C1598      C1858   1.483       .  S
O1599      C1609   1.266       .  A
O1599      V1607   1.906       .  S
O1600      C1610   1.265       .  A
O1600      V1607   1.905       .  S
O1601      C1611   1.264       .  A
O1601      V1607   1.890       .  S
O1602      C1612   1.261       .  A
O1602      V1607   1.892       .  S
O1603      C1612   1.267       .  A
O1603      V1608   1.913       .  S
O1604      C1611   1.266       .  A
O1604      V1608   1.914       .  S
O1605      C1610   1.263       .  A
O1605      V1608   1.897       .  S
O1606      C1609   1.263       .  A
O1606      V1608   1.897       .  S
V1607      V1608   2.086       .  T
C1609      C1877   1.481       .  S
C1610      C1810   1.480       .  S
C1611      C1909   1.488       .  S
C1612      C1829   1.480       .  S
O1613      C2359   1.268       .  A
O1613      V1621   1.912       .  S
O1614      C1624   1.266       .  A
O1614      V1621   1.909       .  S
O1615      C1625   1.260       .  A
O1615      V1621   1.890       .  S
O1616      C1626   1.261       .  A
O1616      V1621   1.891       .  S
O1617      V1622   1.908       .  S
O1618      V1622   1.902       .  S
O1619      V1622   1.889       .  S
O1620      C1623   1.260       .  A
O1620      V1622   1.887       .  S
V1621      V2358   2.086       .  T
C1623      C1794   1.481       .  S
C1624      O2355   1.261       .  A
C1624      C1781   1.478       .  S
C1625      O2354   1.265       .  A
C1625      C1941   1.472       .  S
C1626      O2353   1.266       .  A
C1626      C1861   1.475       .  S
O1627      C1637   1.263       .  A
O1627      V1635   1.893       .  S
O1628      C1638   1.263       .  A
O1628      V1635   1.903       .  S
O1629      C1639   1.264       .  A
O1629      V1635   1.891       .  S
O1630      C1640   1.264       .  A
O1630      V1635   1.893       .  S
O1631      C1640   1.268       .  A
O1631      V1636   1.917       .  S
O1632      C1639   1.266       .  A
O1632      V1636   1.913       .  S
O1633      C1638   1.263       .  A
O1633      V1636   1.892       .  S
O1634      C1637   1.263       .  A
O1634      V1636   1.902       .  S
V1635      V1636   2.084       .  T
C1637      C1797   1.476       .  S
C1638      C1765   1.474       .  S
C1639      C1893   1.488       .  S
C1640      C1826   1.494       .  S
O1641      C1651   1.267       .  A
O1641      V1649   1.910       .  S
O1642      C2388   1.265       .  A
O1642      V2385   1.908       .  S
O1643      C1653   1.261       .  A
O1643      V1649   1.890       .  S
O1644      C1654   1.262       .  A
O1644      V1649   1.884       .  S
O1645      C1654   1.268       .  A
O1645      V1650   1.917       .  S
O1646      C1653   1.266       .  A
O1646      V1650   1.909       .  S
O1647      C1652   1.261       .  A
O1647      V1650   1.894       .  S
O1648      C1651   1.261       .  A
O1648      V1650   1.892       .  S
V1649      V1650   2.086       .  T
C1651      C1749   1.477       .  S
C1652      C2165   1.478       .  S
C1653      C1730   1.476       .  S
C1654      C1842   1.488       .  S
O1655      C1665   1.266       .  A
O1655      V1663   1.907       .  S
O1656      C1666   1.266       .  A
O1656      V1663   1.907       .  S
O1657      C1667   1.261       .  A
O1657      V1663   1.883       .  S
O1658      C1668   1.261       .  A
O1658      V1663   1.887       .  S
O1659      C1668   1.265       .  A
O1659      V1664   1.909       .  S
O1660      C1667   1.268       .  A
O1660      V1664   1.914       .  S
O1661      C1666   1.261       .  A
O1661      V1664   1.894       .  S
O1662      C1665   1.262       .  A
O1662      V1664   1.894       .  S
V1663      V1664   2.085       .  T
C1665      C1746   1.477       .  S
C1666      C2069   1.479       .  S
C1667      C1717   1.484       .  S
C1668      C1778   1.474       .  S
O1669      C1679   1.265       .  A
O1669      V1677   1.901       .  S
O1670      C1680   1.265       .  A
O1670      V1677   1.905       .  S
O1671      C1681   1.262       .  A
O1671      V1677   1.892       .  S
O1672      C1682   1.263       .  A
O1672      V1677   1.892       .  S
O1673      C2418   1.266       .  A
O1673      V1678   1.910       .  S
O1674      C2417   1.268       .  A
O1674      V1678   1.912       .  S
O1675      C1680   1.262       .  A
O1676      C2415   1.261       .  A
O1676      V1678   1.892       .  S
V1678      O2411   1.891       .  S
V1678      V2413   2.084       .  T
C1680      C2117   1.478       .  S
C1681      C1733   1.489       .  S
C1682      C1813   1.477       .  S
O1683      C1693   1.265       .  A
O1683      V1691   1.898       .  S
O1684      C1694   1.263       .  A
O1684      V1691   1.901       .  S
O1685      C1695   1.260       .  A
O1685      V1691   1.888       .  S
O1686      C1696   1.261       .  A
O1686      V1691   1.878       .  S
O1687      C1696   1.266       .  A
O1687      V1692   1.911       .  S
O1688      C1695   1.266       .  A
O1688      V1692   1.908       .  S
O1689      C1694   1.264       .  A
O1689      V1692   1.895       .  S
O1690      C1693   1.262       .  A
O1690      V1692   1.899       .  S
V1691      V1692   2.086       .  T
C1693      C1698   1.478       .  S
C1694      C2037   1.476       .  S
C1695      C1714   1.472       .  S
C1696      C1762   1.478       .  S
C1697      C1698   1.403       .  A
C1697      C1702   1.400       .  A
C1697      H1704   1.085       .  S
C1698      C2435   1.418       .  A
C1699      C1700   1.401       .  A
C1699      C1706   1.505       .  S
C1700      H1705   1.085       .  S
C1701      C2415   1.474       .  S
C1701      C2436   1.401       .  A
C1701      C1702   1.416       .  A
C1702      C1703   1.507       .  S
C1703      H1707   1.108       .  S
C1703      H1708   1.110       .  S
C1703      H1709   1.104       .  S
C1706      H1710   1.102       .  S
C1706      H1711   1.110       .  S
C1706      H1712   1.108       .  S
C1713      C1714   1.401       .  A
C1713      C1718   1.403       .  A
C1713      H1720   1.085       .  S
C1714      C1715   1.408       .  A
C1715      C1716   1.400       .  A
C1715      C1722   1.501       .  S
C1716      C1717   1.406       .  A
C1716      H1721   1.084       .  S
C1717      C1718   1.415       .  A
C1718      C1719   1.499       .  S
C1719      H1723   1.111       .  S
C1719      H1724   1.108       .  S
C1719      H1725   1.108       .  S
C1722      H1726   1.110       .  S
C1722      H1727   1.107       .  S
C1722      H1728   1.111       .  S
C1729      C1730   1.401       .  A
C1729      C1734   1.403       .  A
C1729      H1736   1.085       .  S
C1730      C1731   1.410       .  A
C1731      C1732   1.405       .  A
C1731      C1738   1.506       .  S
C1732      C1733   1.408       .  A
C1732      H1737   1.084       .  S
C1733      C1734   1.416       .  A
C1734      C1735   1.502       .  S
C1735      H1739   1.111       .  S
C1735      H1741   1.109       .  S
C1738      H1742   1.111       .  S
C1738      H1743   1.105       .  S
C1738      H1744   1.111       .  S
H1740      C2471   1.107       .  S
C1745      C1746   1.404       .  A
C1745      C1750   1.405       .  A
C1745      H1752   1.084       .  S
C1746      C1747   1.413       .  A
C1747      C1748   1.404       .  A
C1747      C1754   1.508       .  S
C1748      C1749   1.404       .  A
C1748      H1753   1.084       .  S
C1749      C1750   1.413       .  A
C1751      C2486   1.507       .  S
C1751      H1755   1.111       .  S
C1751      H1756   1.108       .  S
C1751      H1757   1.110       .  S
C1754      H1758   1.110       .  S
C1754      H1759   1.107       .  S
C1754      H1760   1.111       .  S
C1761      C1762   1.402       .  A
C1761      C1766   1.393   1_565  A
C1761      H1768   1.085       .  S
C1762      C1763   1.415   1_565  A
C1763      C1764   1.410       .  A
C1763      C1770   1.506   1_545  S
C1764      C1765   1.406       .  A
C1764      H1769   1.084       .  S
C1765      C1766   1.410       .  A
C1766      C1767   1.504       .  S
C1767      H1771   1.111       .  S
C1767      H1772   1.109       .  S
C1767      H1773   1.110       .  S
C1770      H1774   1.111       .  S
C1770      H2511   1.109       .  S
C1770      H1776   1.111   1_565  S
C1777      C1778   1.401       .  A
C1777      C1782   1.399       .  A
C1777      H1784   1.085       .  S
C1778      C1779   1.411       .  A
C1779      C1780   1.407       .  A
C1779      C1786   1.506       .  S
C1780      C1781   1.406       .  A
C1780      H1785   1.084       .  S
C1781      C1782   1.417       .  A
C1782      C1783   1.511       .  S
C1783      H1787   1.111       .  S
C1783      H1788   1.106       .  S
C1783      H2525   1.105       .  S
C1786      H1790   1.107       .  S
C1786      H1791   1.111       .  S
C1786      H1792   1.111       .  S
C1793      C2530   1.406       .  A
C1793      C2534   1.407       .  A
C1793      H1800   1.084       .  S
C1794      C1795   1.420       .  A
C1795      C1796   1.397       .  A
C1795      C1802   1.505       .  S
C1796      C1797   1.398       .  A
C1796      H1801   1.086       .  S
C1797      C1798   1.414       .  A
C1799      C2534   1.507       .  S
C1799      H1803   1.111       .  S
C1799      H1804   1.103       .  S
C1799      H1805   1.111       .  S
C1802      H1806   1.110       .  S
C1802      H1807   1.099       .  S
C1802      H1808   1.109       .  S
C1809      C1810   1.405       .  A
C1809      C1814   1.407       .  A
C1809      H1816   1.084       .  S
C1810      C1811   1.414       .  A
C1811      C1812   1.400       .  A
C1811      C1818   1.504       .  S
C1812      C1813   1.401   1_545  A
C1812      H1817   1.085   1_545  S
C1813      C1814   1.413   1_565  A
C1814      C1815   1.503       .  S
C1815      H1819   1.111       .  S
C1815      H1821   1.109   1_545  S
C1818      H1822   1.107       .  S
C1818      H1823   1.108       .  S
C1818      H1824   1.111       .  S
H1820      C2551   1.108   1_565  S
C1825      C1826   1.409       .  A
C1825      C1830   1.405       .  A
C1825      H1832   1.084       .  S
C1826      C1827   1.418       .  A
C1827      C1828   1.407       .  A
C1828      C1829   1.403       .  A
C1828      H1833   1.085       .  S
C1829      C1830   1.410       .  A
C1830      C1831   1.506       .  S
C1831      H1835   1.111       .  S
C1831      H1836   1.105       .  S
C1831      H1837   1.111       .  S
C1834      C2563   1.503       .  S
C1834      H1838   1.101       .  S
C1834      H1839   1.102       .  S
C1834      H1840   1.111       .  S
C1841      C1842   1.406       .  A
C1841      C1846   1.399       .  A
C1841      H1848   1.084       .  S
C1842      C1843   1.421       .  A
C1843      C1844   1.409       .  A
C1843      C1850   1.506       .  S
C1844      H1849   1.085       .  S
C1845      C2580   1.404       .  A
C1845      C2582   1.410       .  A
C1847      C2582   1.504       .  S
C1847      H2587   1.111       .  S
C1847      H1852   1.109       .  S
C1847      H2589   1.109       .  S
C1850      H1854   1.101       .  S
C1850      H1855   1.110       .  S
C1850      H1856   1.111       .  S
C1857      C1862   1.398       .  A
C1857      H1864   1.084       .  S
C1858      C2593   1.405       .  A
C1858      C1859   1.418       .  A
C1859      C1860   1.405       .  A
C1859      C1866   1.505       .  S
C1860      C1861   1.402       .  A
C1860      H1865   1.085       .  S
C1861      C2598   1.408       .  A
C1862      C1863   1.498       .  S
C1863      H1867   1.111       .  S
C1863      H1868   1.106       .  S
C1863      H1869   1.109       .  S
C1866      H1870   1.103       .  S
C1866      H1871   1.104       .  S
C1866      H1872   1.111       .  S
C1873      C1874   1.404       .  A
C1873      C1878   1.404       .  A
C1873      H1880   1.085       .  S
C1874      C1875   1.413       .  A
C1875      C1876   1.405       .  A
C1875      C1882   1.508       .  S
C1876      C1877   1.406       .  A
C1876      H1881   1.085       .  S
C1877      C1878   1.417       .  A
C1878      C1879   1.509       .  S
C1879      H1883   1.110       .  S
C1879      H1884   1.106       .  S
C1879      H1885   1.111       .  S
C1882      H1886   1.111       .  S
C1882      H1887   1.107       .  S
C1882      H1888   1.111       .  S
C1889      C1890   1.406       .  A
C1889      C1894   1.413       .  A
C1889      H1896   1.084       .  S
C1890      C1891   1.411       .  A
C1891      C1892   1.397       .  A
C1891      C1898   1.499       .  S
C1892      C1893   1.402   1_455  A
C1892      H1897   1.083   1_455  S
C1893      C1894   1.418   1_655  A
C1894      C1895   1.506   1_455  S
C1895      H1900   1.108       .  S
C1895      H1901   1.111       .  S
C1898      H1902   1.110       .  S
C1898      H1903   1.108       .  S
C1898      H2640   1.111       .  S
H1899      C2631   1.111   1_455  S
C1905      C1906   1.405       .  A
C1905      C1910   1.410       .  A
C1905      H1912   1.084       .  S
C1906      C1907   1.412       .  A
C1907      C1908   1.398       .  A
C1908      C1909   1.403       .  A
C1908      H1913   1.085       .  S
C1909      C1910   1.418       .  A
C1910      C1911   1.504       .  S
C1911      H1915   1.111       .  S
C1911      H1916   1.106       .  S
C1911      H1917   1.104       .  S
C1914      C2643   1.502       .  S
C1914      H1918   1.108       .  S
C1914      H1919   1.108       .  S
C1914      H1920   1.111       .  S
C1921      C1926   1.407       .  A
C1921      H1928   1.084       .  S
C1922      C2303   1.483       .  S
C1922      C2657   1.403       .  A
C1922      C1923   1.415       .  A
C1923      C1924   1.406       .  A
C1923      C1930   1.508       .  S
C1924      C1925   1.404       .  A
C1924      H1929   1.084       .  S
C1925      C2662   1.415       .  A
C1926      C1927   1.503       .  S
C1927      H1931   1.111       .  S
C1927      H1932   1.111       .  S
C1927      H1933   1.105       .  S
C1930      H1934   1.106       .  S
C1930      H1935   1.111       .  S
C1930      H1936   1.111       .  S
C1937      C1938   1.402       .  A
C1937      C1942   1.399       .  A
C1937      H1944   1.085       .  S
C1938      C1939   1.414       .  A
C1939      C1940   1.406       .  A
C1939      C2682   1.506       .  S
C1940      C1941   1.403   1_455  A
C1940      H2681   1.084   1_455  S
C1941      C1942   1.413   1_655  A
C1942      C1943   1.508   1_455  S
C1943      H1947   1.111   1_655  S
C1943      H1948   1.106       .  S
C1943      H1949   1.103       .  S
C1946      H1950   1.104       .  S
C1946      H1952   1.111       .  S
H1951      C2682   1.110       .  S
C1953      C1954   1.409       .  A
C1953      C1958   1.403       .  A
C1953      H1960   1.084       .  S
C1954      C1955   1.420       .  A
C1955      C1956   1.406       .  A
C1955      C1962   1.502       .  S
C1956      C1957   1.401       .  A
C1956      H1961   1.084       .  S
C1957      C1958   1.410       .  A
C1958      C1959   1.506       .  S
C1959      H1963   1.111       .  S
C1959      H1964   1.110       .  S
C1959      H1965   1.105       .  S
C1962      H1966   1.097       .  S
C1962      H1967   1.096       .  S
C1962      H1968   1.111       .  S
C1969      C1974   1.397       .  A
C1969      H1976   1.085       .  S
C1970      C2705   1.400       .  A
C1970      C1971   1.414       .  A
C1971      C1972   1.406       .  A
C1971      C1978   1.508       .  S
C1972      C2709   1.406       .  A
C1972      H1977   1.085       .  S
C1973      C1974   1.413       .  A
C1974      C1975   1.504       .  S
C1975      H1979   1.111       .  S
C1975      H1980   1.108       .  S
C1975      H1981   1.108       .  S
C1978      H1982   1.110       .  S
C1978      H1983   1.107       .  S
C1978      H1984   1.109       .  S
C1985      C1986   1.408       .  A
C1985      C1990   1.403       .  A
C1985      H1992   1.084       .  S
C1986      C1987   1.418       .  A
C1987      C1988   1.399       .  A
C1987      C1994   1.506       .  S
C1988      C1989   1.399       .  A
C1988      H1993   1.085       .  S
C1989      C1990   1.413       .  A
C1990      C1991   1.509       .  S
C1991      H1995   1.109       .  S
C1991      H1996   1.110       .  S
C1991      H1997   1.107       .  S
C1994      H1999   1.099       .  S
C1994      H2000   1.111       .  S
H1998      C2730   1.103       .  S
C2001      C2002   1.404       .  A
C2001      C2006   1.403       .  A
C2001      H2008   1.084       .  S
C2002      C2003   1.412       .  A
C2003      C2004   1.398       .  A
C2004      C2005   1.404       .  A
C2004      H2009   1.084       .  S
C2005      C2006   1.412       .  A
C2006      C2007   1.508       .  S
C2007      H2011   1.111       .  S
C2007      H2012   1.107       .  S
C2007      H2013   1.109       .  S
C2010      C2739   1.510       .  S
C2010      H2014   1.109       .  S
C2010      H2015   1.107       .  S
C2010      H2016   1.111       .  S
C2017      C2018   1.406       .  A
C2017      C2022   1.412   1_565  A
C2017      H2024   1.084       .  S
C2018      C2019   1.413   1_565  A
C2019      C2020   1.400       .  A
C2019      C2026   1.510   1_545  S
C2020      C2021   1.404       .  A
C2020      H2025   1.079       .  S
C2021      C2022   1.418       .  A
C2022      C2023   1.507       .  S
C2023      H2027   1.111       .  S
C2023      H2028   1.111       .  S
C2023      H2029   1.108       .  S
C2026      H2030   1.108       .  S
C2026      H2031   1.111       .  S
C2026      H2032   1.111   1_565  S
C2033      C2034   1.406       .  A
C2033      C2038   1.398       .  A
C2033      H2040   1.084       .  S
C2034      C2035   1.416       .  A
C2035      C2036   1.409       .  A
C2035      C2042   1.506       .  S
C2036      C2037   1.406   1_455  A
C2036      H2041   1.084   1_455  S
C2037      C2038   1.412   1_655  A
C2038      C2039   1.510   1_455  S
C2039      H2779   1.111       .  S
C2039      H2044   1.111   1_655  S
C2039      H2045   1.108       .  S
C2042      H2046   1.109       .  S
C2042      H2047   1.111       .  S
H2048      C2778   1.111       .  S
C2049      C2050   1.407       .  A
C2049      C2054   1.408       .  A
C2049      H2056   1.084       .  S
C2050      C2051   1.419       .  A
C2051      C2052   1.400       .  A
C2051      C2794   1.510       .  S
C2052      C2053   1.400       .  A
C2052      H2057   1.085       .  S
C2053      C2054   1.413       .  A
C2054      C2055   1.506       .  S
C2055      H2059   1.111       .  S
C2055      H2060   1.106       .  S
C2055      H2061   1.109       .  S
C2058      H2062   1.107       .  S
C2058      H2063   1.106       .  S
C2058      H2064   1.111       .  S
C2065      C2066   1.399       .  A
C2065      C2070   1.402   1_455  A
C2065      H2808   1.083       .  S
C2066      C2067   1.414       .  A
C2067      C2068   1.404       .  A
C2067      C2074   1.506       .  S
C2068      C2069   1.403   1_455  A
C2068      H2073   1.084   1_455  S
C2069      C2070   1.413       .  A
C2070      C2807   1.500       .  S
C2071      H2075   1.111       .  S
C2071      H2076   1.104       .  S
C2071      H2077   1.111       .  S
C2074      H2078   1.107       .  S
C2074      H2079   1.103       .  S
C2074      H2080   1.111       .  S
C2081      C2082   1.404       .  A
C2081      C2086   1.406       .  A
C2081      H2088   1.084       .  S
C2082      C2083   1.423       .  A
C2083      C2084   1.404       .  A
C2083      C2090   1.501       .  S
C2084      C2085   1.398       .  A
C2085      C2086   1.416       .  A
C2086      C2087   1.507       .  S
C2087      H2091   1.111       .  S
C2087      H2092   1.105       .  S
C2087      H2093   1.109       .  S
H2089      C2820   1.085       .  S
C2090      H2094   1.110       .  S
H2095      C2826   1.100       .  S
H2096      C2826   1.109       .  S
C2097      C2098   1.403   1_545  A
C2097      C2102   1.400       .  A
C2097      H2104   1.085   1_545  S
C2098      C2099   1.413   1_565  A
C2099      C2100   1.404       .  A
C2100      C2101   1.400       .  A
C2101      C2102   1.411       .  A
C2102      C2103   1.507       .  S
C2103      H2107   1.111       .  S
C2103      H2108   1.108       .  S
C2103      H2109   1.110       .  S
H2105      C2836   1.084       .  S
C2106      C2835   1.501   1_565  S
C2106      H2110   1.111       .  S
C2106      H2111   1.105       .  S
C2106      H2112   1.111   1_565  S
C2113      C2114   1.400       .  A
C2113      C2118   1.404       .  A
C2113      H2120   1.084       .  S
C2114      C2115   1.413       .  A
C2115      C2116   1.401       .  A
C2116      C2117   1.403       .  A
C2117      C2118   1.414       .  A
C2118      C2119   1.501       .  S
C2119      H2123   1.111       .  S
C2119      H2124   1.105       .  S
C2119      H2125   1.110       .  S
H2121      C2852   1.084       .  S
C2122      C2851   1.509       .  S
C2122      H2862   1.111       .  S
C2122      H2127   1.108       .  S
C2122      H2128   1.111       .  S
C2129      C2130   1.404       .  A
C2129      C2134   1.399       .  A
C2129      H2136   1.084       .  S
C2130      C2131   1.417       .  A
C2131      C2132   1.406       .  A
C2131      C2138   1.502       .  S
C2132      C2133   1.402       .  A
C2132      H2137   1.084       .  S
C2133      C2134   1.407       .  A
C2135      C2870   1.496       .  S
C2135      H2139   1.111       .  S
C2135      H2140   1.106       .  S
C2135      H2141   1.109       .  S
C2138      H2142   1.109       .  S
C2138      H2143   1.108       .  S
C2138      H2144   1.111       .  S
C2145      C2150   1.406       .  A
C2145      H2152   1.084       .  S
C2146      C2881   1.403       .  A
C2146      C2147   1.412       .  A
C2147      C2148   1.399       .  A
C2147      C2154   1.510       .  S
C2148      C2885   1.406       .  A
C2148      H2153   1.084       .  S
C2149      C2150   1.417       .  A
C2150      C2151   1.505       .  S
C2151      H2155   1.111       .  S
C2151      H2156   1.103       .  S
C2151      H2157   1.105       .  S
C2154      H2158   1.107       .  S
C2154      H2159   1.111       .  S
C2154      H2160   1.111       .  S
C2161      C2162   1.406       .  A
C2161      C2166   1.405       .  A
C2161      H2168   1.084       .  S
C2162      C2899   1.418       .  A
C2163      C2164   1.404       .  A
C2163      C2170   1.509       .  S
C2164      C2165   1.402       .  A
C2164      H2169   1.084       .  S
C2166      C2901   1.412       .  A
C2166      C2167   1.505       .  S
C2167      H2171   1.111       .  S
C2167      H2172   1.111       .  S
C2167      H2173   1.104       .  S
C2170      H2174   1.109       .  S
C2170      H2175   1.111       .  S
C2170      H2176   1.111       .  S
C2177      C2182   1.406       .  A
C2177      H2184   1.084       .  S
C2178      C2913   1.404       .  A
C2178      C2179   1.412       .  A
C2179      C2180   1.402       .  A
C2179      C2186   1.506       .  S
C2180      C2181   1.406       .  A
C2180      H2185   1.084       .  S
C2181      C2918   1.416       .  A
C2182      C2183   1.507       .  S
C2183      H2187   1.111       .  S
C2183      H2188   1.111       .  S
C2183      H2189   1.106       .  S
C2186      H2190   1.101       .  S
C2186      H2191   1.106       .  S
C2186      H2192   1.111       .  S
C2193      C2194   1.405       .  A
C2193      C2198   1.403       .  A
C2193      H2200   1.084       .  S
C2194      C2195   1.413       .  A
C2195      C2196   1.404       .  A
C2195      C2202   1.508       .  S
C2196      C2197   1.406       .  A
C2196      H2201   1.084       .  S
C2197      C2198   1.415       .  A
C2198      C2199   1.509       .  S
C2199      H2203   1.111       .  S
C2199      H2204   1.106       .  S
C2199      H2205   1.107       .  S
C2202      H2206   1.111       .  S
C2202      H2207   1.108       .  S
C2202      H2208   1.111       .  S
O2209      C2219   1.265   1_554  A
O2210      V2217   1.902       .  S
O2211      V2217   1.895       .  S
O2212      C2222   1.262   1_554  A
O2213      C2222   1.265       .  A
O2213      V2218   1.908       .  S
O2214      C2221   1.267       .  A
O2214      V2218   1.906       .  S
O2215      C2220   1.263   1_556  A
O2215      V2218   1.893       .  S
O2216      C2219   1.263       .  A
O2216      V2218   1.894       .  S
C2219      C2933   1.480       .  S
C2220      C2882   1.474       .  S
C2221      C2898   1.484       .  S
C2222      C2914   1.477       .  S
O2223      C2233   1.268       .  A
O2223      V2231   1.911       .  S
O2224      C2234   1.266       .  A
O2224      V2231   1.910       .  S
O2225      C2235   1.260       .  A
O2225      V2231   1.887       .  S
O2226      C2236   1.263       .  A
O2226      V2231   1.887       .  S
O2227      C2236   1.267       .  A
O2227      V2232   1.910       .  S
O2228      C2235   1.265       .  A
O2228      V2232   1.905       .  S
O2229      C2234   1.260       .  A
O2229      V2232   1.885       .  S
O2230      C2233   1.261       .  A
O2230      V2232   1.888       .  S
V2231      V2232   2.081       .  T
C2233      C2930   1.479       .  S
C2234      C2834   1.475       .  S
C2235      C2850   1.469       .  S
C2236      C2866   1.485       .  S
O2237      V2245   1.911       .  S
O2238      C2248   1.267       .  A
O2238      V2245   1.911       .  S
O2239      C2249   1.261       .  A
O2239      V2245   1.896       .  S
O2240      C2250   1.262       .  A
O2240      V2245   1.890       .  S
O2241      V2246   1.908       .  S
O2242      V2246   1.900       .  S
O2243      V2246   1.889       .  S
O2244      C2247   1.261       .  A
O2244      V2246   1.893       .  S
C2247      C2821   1.481       .  S
C2248      C2786   1.483       .  S
C2249      C2802   1.473       .  S
C2250      C2917   1.483       .  S
O2251      C2261   1.267       .  A
O2251      V2259   1.908       .  S
O2252      C2262   1.265       .  A
O2252      V2259   1.910       .  S
O2253      C2263   1.260       .  A
O2253      V2259   1.878       .  S
O2254      C2264   1.260       .  A
O2254      V2259   1.889       .  S
O2255      C2264   1.267       .  A
O2255      V2260   1.914       .  S
O2256      C2263   1.268       .  A
O2256      V2260   1.916       .  S
O2257      C2262   1.264       .  A
O2257      V2260   1.897       .  S
O2258      C2261   1.263       .  A
O2258      V2260   1.905       .  S
V2259      V2260   2.085       .  T
C2261      C2818   1.490       .  S
C2262      C2754   1.483       .  S
C2263      C2770   1.483       .  S
C2264      C2869   1.476       .  S
O2265      C2275   1.263       .  A
O2265      V2273   1.895       .  S
O2267      C2277   1.260       .  A
O2267      V2273   1.884       .  S
O2268      C2278   1.263       .  A
O2268      V2273   1.888       .  S
O2269      C2278   1.265       .  A
O2269      V2274   1.908       .  S
O2270      C2277   1.266       .  A
O2270      V2274   1.906       .  S
O2271      C2276   1.263       .  A
O2271      V2274   1.895       .  S
O2272      C2275   1.262       .  A
O2272      V2274   1.892       .  S
V2273      V2274   2.087       .  T
C2275      C2738   1.469       .  S
C2276      C2709   1.477       .  S
C2277      C2725   1.468       .  S
C2278      C2885   1.484       .  S
O2279      C2289   1.265       .  A
O2279      V2287   1.904       .  S
O2280      C2290   1.264       .  A
O2280      V2287   1.905       .  S
O2281      C2291   1.261       .  A
O2281      V2287   1.892       .  S
O2282      C2292   1.263       .  A
O2282      V2287   1.890       .  S
O2283      C2292   1.265       .  A
O2283      V2288   1.909       .  S
O2284      C2291   1.266       .  A
O2284      V2288   1.908       .  S
O2285      C2290   1.262       .  A
O2285      V2288   1.888       .  S
O2286      C2289   1.260       .  A
O2286      V2288   1.882       .  S
V2287      V2288   2.085       .  T
C2289      C2741   1.471       .  S
C2290      C2674   1.475       .  S
C2291      C2693   1.477       .  S
C2292      C2789   1.477       .  S
O2293      C2303   1.265       .  A
O2293      V2301   1.906       .  S
O2294      C2304   1.265       .  A
O2294      V2301   1.907       .  S
O2295      C2305   1.266       .  A
O2295      V2301   1.901       .  S
O2296      C2306   1.262       .  A
O2296      V2301   1.894       .  S
O2297      V2302   1.899       .  S
O2298      V2302   1.893       .  S
O2299      V2302   1.902   1_554  S
O2300      V2302   1.903       .  S
C2304      C2642   1.485       .  S
C2305      C2722   1.484       .  S
C2306      C2837   1.468       .  S
O2307      C2317   1.264       .  A
O2307      V2315   1.902       .  S
O2308      C2318   1.265       .  A
O2308      V2315   1.910       .  S
O2309      C2319   1.264       .  A
O2309      V2315   1.890       .  S
O2310      C2320   1.264       .  A
O2310      V2315   1.894       .  S
O2311      C2320   1.267       .  A
O2311      V2316   1.915       .  S
O2312      C2319   1.267       .  A
O2312      V2316   1.918       .  S
O2313      C2318   1.265       .  A
O2313      V2316   1.903       .  S
O2314      C2317   1.266   1_554  A
O2314      V2316   1.909   1_554  S
V2315      V2316   2.084       .  T
C2317      C2661   1.486       .  S
C2318      C2626   1.485       .  S
C2319      C2690   1.494       .  S
C2320      C2757   1.491       .  S
O2321      C2331   1.265   1_554  A
O2322      V2329   1.906       .  S
O2323      V2329   1.886       .  S
O2324      C2334   1.264   1_554  A
O2325      C2334   1.264       .  A
O2325      V2330   1.904       .  S
O2326      C2333   1.265       .  A
O2326      V2330   1.906       .  S
O2327      C2332   1.264       .  A
O2327      V2330   1.900       .  S
O2328      C2331   1.264       .  A
O2328      V2330   1.901       .  S
C2331      C2610   1.481       .  S
C2332      C2581   1.481   1_556  S
C2333      C2706   1.468       .  S
C2334      C2594   1.483       .  S
O2335      C2345   1.266       .  A
O2335      V2343   1.906       .  S
O2336      C2346   1.265       .  A
O2336      V2343   1.906       .  S
O2337      C2347   1.264       .  A
O2337      V2343   1.890       .  S
O2338      C2348   1.261       .  A
O2338      V2343   1.891       .  S
O2339      C2348   1.267       .  A
O2339      V2344   1.913       .  S
O2340      C2347   1.266       .  A
O2340      V2344   1.914       .  S
O2341      C2346   1.263       .  A
O2341      V2344   1.897       .  S
O2342      C2345   1.263       .  A
O2342      V2344   1.897       .  S
V2343      V2344   2.086       .  T
C2345      C2613   1.481       .  S
C2346      C2546   1.481       .  S
C2347      C2645   1.488       .  S
C2348      C2565   1.480       .  S
O2349      V2357   1.913       .  S
O2350      C2360   1.266       .  A
O2350      V2357   1.909       .  S
O2351      C2361   1.260       .  A
O2351      V2357   1.890       .  S
O2352      C2362   1.261       .  A
O2352      V2357   1.891       .  S
O2353      V2358   1.908       .  S
O2354      V2358   1.902       .  S
O2355      V2358   1.889       .  S
O2356      C2359   1.260       .  A
O2356      V2358   1.887       .  S
C2359      C2530   1.481       .  S
C2360      C2517   1.478       .  S
C2361      C2677   1.472       .  S
C2362      C2597   1.475       .  S
O2363      C2373   1.263       .  A
O2363      V2371   1.892       .  S
O2364      C2374   1.263       .  A
O2364      V2371   1.903       .  S
O2365      C2375   1.264       .  A
O2365      V2371   1.890       .  S
O2366      C2376   1.264       .  A
O2366      V2371   1.893       .  S
O2367      C2376   1.268       .  A
O2367      V2372   1.917       .  S
O2368      C2375   1.266       .  A
O2368      V2372   1.913       .  S
O2369      C2374   1.263       .  A
O2369      V2372   1.893       .  S
O2370      C2373   1.263       .  A
O2370      V2372   1.902       .  S
V2371      V2372   2.084       .  T
C2373      C2533   1.475       .  S
C2374      C2501   1.474       .  S
C2375      C2629   1.487       .  S
C2376      C2562   1.494       .  S
O2377      C2387   1.267       .  A
O2377      V2385   1.910       .  S
O2379      C2389   1.261       .  A
O2379      V2385   1.890       .  S
O2380      C2390   1.262       .  A
O2380      V2385   1.884       .  S
O2381      C2390   1.268       .  A
O2381      V2386   1.917       .  S
O2382      C2389   1.266       .  A
O2382      V2386   1.909       .  S
O2383      C2388   1.262       .  A
O2383      V2386   1.894       .  S
O2384      C2387   1.261       .  A
O2384      V2386   1.892       .  S
V2385      V2386   2.086       .  T
C2387      C2485   1.477       .  S
C2388      C2901   1.478       .  S
C2389      C2466   1.476       .  S
C2390      C2578   1.487       .  S
O2391      C2401   1.266       .  A
O2391      V2399   1.907       .  S
O2392      C2402   1.266       .  A
O2392      V2399   1.906       .  S
O2393      C2403   1.261       .  A
O2393      V2399   1.884       .  S
O2394      C2404   1.261       .  A
O2394      V2399   1.888       .  S
O2395      C2404   1.265       .  A
O2395      V2400   1.909       .  S
O2396      C2403   1.268       .  A
O2396      V2400   1.914       .  S
O2397      C2402   1.261       .  A
O2397      V2400   1.894       .  S
O2398      C2401   1.262       .  A
O2398      V2400   1.894       .  S
V2399      V2400   2.085       .  T
C2401      C2482   1.477       .  S
C2402      C2805   1.478       .  S
C2403      C2453   1.484       .  S
C2404      C2514   1.474       .  S
O2405      C2415   1.266       .  A
O2405      V2413   1.901       .  S
O2406      C2416   1.265       .  A
O2406      V2413   1.906       .  S
O2407      C2417   1.262       .  A
O2407      V2413   1.892       .  S
O2408      C2418   1.263       .  A
O2408      V2413   1.893       .  S
O2409      V2414   1.910       .  S
O2410      V2414   1.912       .  S
O2411      C2416   1.262       .  A
O2412      V2414   1.892       .  S
C2416      C2853   1.478       .  S
C2417      C2469   1.488       .  S
C2418      C2549   1.477       .  S
O2419      C2429   1.265       .  A
O2419      V2427   1.897       .  S
O2420      C2430   1.263       .  A
O2420      V2427   1.901       .  S
O2421      C2431   1.260       .  A
O2421      V2427   1.888       .  S
O2422      C2432   1.261       .  A
O2422      V2427   1.878       .  S
O2423      C2432   1.266       .  A
O2423      V2428   1.911       .  S
O2424      C2431   1.266       .  A
O2424      V2428   1.907       .  S
O2425      C2430   1.264       .  A
O2425      V2428   1.895       .  S
O2426      C2429   1.262       .  A
O2426      V2428   1.899       .  S
V2427      V2428   2.086       .  T
C2429      C2434   1.479       .  S
C2430      C2773   1.476       .  S
C2431      C2450   1.472       .  S
C2432      C2498   1.477       .  S
C2433      C2434   1.403       .  A
C2433      C2438   1.400       .  A
C2433      H2440   1.085       .  S
C2435      C2436   1.402       .  A
C2435      C2442   1.505       .  S
C2436      H2441   1.085       .  S
C2437      C2438   1.416       .  A
C2438      C2439   1.507       .  S
C2439      H2443   1.108       .  S
C2439      H2444   1.110       .  S
C2439      H2445   1.104       .  S
C2442      H2446   1.102       .  S
C2442      H2447   1.110       .  S
C2442      H2448   1.108       .  S
C2449      C2450   1.401       .  A
C2449      C2454   1.403       .  A
C2449      H2456   1.085       .  S
C2450      C2451   1.408       .  A
C2451      C2452   1.400       .  A
C2451      C2458   1.501       .  S
C2452      C2453   1.406       .  A
C2452      H2457   1.084       .  S
C2453      C2454   1.415       .  A
C2454      C2455   1.499       .  S
C2455      H2459   1.111       .  S
C2455      H2460   1.108       .  S
C2455      H2461   1.108       .  S
C2458      H2462   1.110       .  S
C2458      H2463   1.107   1_556  S
C2458      H2464   1.111   1_556  S
C2465      C2466   1.401       .  A
C2465      C2470   1.403       .  A
C2465      H2472   1.085       .  S
C2466      C2467   1.410       .  A
C2467      C2468   1.405       .  A
C2467      C2474   1.506       .  S
C2468      C2469   1.408       .  A
C2468      H2473   1.084       .  S
C2469      C2470   1.416       .  A
C2470      C2471   1.502       .  S
C2471      H2475   1.111       .  S
C2471      H2477   1.109       .  S
C2474      H2478   1.110       .  S
C2474      H2479   1.105       .  S
C2474      H2480   1.111       .  S
C2481      C2482   1.404       .  A
C2481      C2486   1.405       .  A
C2481      H2488   1.084       .  S
C2482      C2483   1.413       .  A
C2483      C2484   1.405       .  A
C2483      C2490   1.508       .  S
C2484      C2485   1.404       .  A
C2484      H2489   1.084       .  S
C2485      C2486   1.413       .  A
C2487      H2491   1.111   1_554  S
C2487      H2492   1.108   1_554  S
C2487      H2493   1.110       .  S
C2490      H2494   1.110       .  S
C2490      H2495   1.107       .  S
C2490      H2496   1.111       .  S
C2497      C2498   1.402       .  A
C2497      C2502   1.393   1_565  A
C2497      H2504   1.085       .  S
C2498      C2499   1.415   1_565  A
C2499      C2500   1.410       .  A
C2499      C2506   1.506   1_545  S
C2500      C2501   1.406       .  A
C2500      H2505   1.084       .  S
C2501      C2502   1.409       .  A
C2502      C2503   1.503       .  S
C2503      H2507   1.111       .  S
C2503      H2508   1.109       .  S
C2503      H2509   1.110       .  S
C2506      H2510   1.111       .  S
C2506      H2512   1.111   1_566  S
C2513      C2514   1.401       .  A
C2513      C2518   1.400       .  A
C2513      H2520   1.085       .  S
C2514      C2515   1.411       .  A
C2515      C2516   1.407       .  A
C2515      C2522   1.506       .  S
C2516      C2517   1.406       .  A
C2516      H2521   1.084       .  S
C2517      C2518   1.417       .  A
C2518      C2519   1.511   1_556  S
C2519      H2523   1.111       .  S
C2519      H2524   1.106   1_554  S
C2522      H2526   1.107       .  S
C2522      H2527   1.111       .  S
C2522      H2528   1.111       .  S
C2529      H2536   1.084       .  S
C2530      C2531   1.420       .  A
C2531      C2532   1.396       .  A
C2531      C2538   1.505       .  S
C2532      C2533   1.398       .  A
C2532      H2537   1.086       .  S
C2533      C2534   1.413       .  A
C2535      H2539   1.111       .  S
C2535      H2540   1.103       .  S
C2535      H2541   1.111   1_556  S
C2538      H2542   1.110       .  S
C2538      H2543   1.099       .  S
C2538      H2544   1.109       .  S
C2545      C2546   1.405       .  A
C2545      C2550   1.407       .  A
C2545      H2552   1.084       .  S
C2546      C2547   1.414       .  A
C2547      C2548   1.400       .  A
C2547      C2554   1.505       .  S
C2548      C2549   1.401   1_545  A
C2548      H2553   1.085   1_545  S
C2549      C2550   1.413   1_565  A
C2550      C2551   1.503       .  S
C2551      H2555   1.111       .  S
C2551      H2557   1.109   1_545  S
C2554      H2558   1.107       .  S
C2554      H2559   1.107       .  S
C2554      H2560   1.111       .  S
C2561      C2562   1.409       .  A
C2561      C2566   1.405       .  A
C2561      H2568   1.084       .  S
C2562      C2563   1.418       .  A
C2563      C2564   1.407       .  A
C2564      C2565   1.403       .  A
C2564      H2569   1.085       .  S
C2565      C2566   1.410       .  A
C2566      C2567   1.506       .  S
C2567      H2571   1.111       .  S
C2567      H2572   1.105       .  S
C2567      H2573   1.111       .  S
C2570      H2574   1.101       .  S
C2570      H2575   1.102   1_554  S
C2570      H2576   1.111   1_554  S
C2577      C2578   1.406       .  A
C2577      C2582   1.398       .  A
C2577      H2584   1.084       .  S
C2578      C2579   1.421       .  A
C2579      C2580   1.409       .  A
C2579      C2586   1.506       .  S
C2580      H2585   1.085       .  S
C2583      H2588   1.108       .  S
C2586      H2590   1.101       .  S
C2586      H2591   1.110       .  S
C2586      H2592   1.111       .  S
C2593      C2598   1.398       .  A
C2593      H2600   1.084       .  S
C2594      C2595   1.418       .  A
C2595      C2596   1.405       .  A
C2595      C2602   1.505       .  S
C2596      C2597   1.402       .  A
C2596      H2601   1.085       .  S
C2598      C2599   1.499       .  S
C2599      H2603   1.111       .  S
C2599      H2604   1.106       .  S
C2599      H2605   1.109       .  S
C2602      H2606   1.103       .  S
C2602      H2607   1.104       .  S
C2602      H2608   1.111       .  S
C2609      C2610   1.405       .  A
C2609      C2614   1.404       .  A
C2609      H2616   1.085       .  S
C2610      C2611   1.413       .  A
C2611      C2612   1.405       .  A
C2611      C2618   1.508   1_556  S
C2612      C2613   1.406       .  A
C2612      H2617   1.085       .  S
C2613      C2614   1.417       .  A
C2614      C2615   1.509       .  S
C2615      H2619   1.110       .  S
C2615      H2620   1.106       .  S
C2615      H2621   1.111       .  S
C2618      H2622   1.111   1_554  S
C2618      H2623   1.107       .  S
C2618      H2624   1.111       .  S
C2625      C2626   1.406       .  A
C2625      C2630   1.413       .  A
C2625      H2632   1.084       .  S
C2626      C2627   1.411       .  A
C2627      C2628   1.397       .  A
C2627      C2634   1.499       .  S
C2628      C2629   1.402   1_455  A
C2628      H2633   1.083   1_455  S
C2629      C2630   1.418   1_655  A
C2630      C2631   1.506   1_455  S
C2631      H2636   1.108       .  S
C2631      H2637   1.111       .  S
C2634      H2638   1.110       .  S
C2634      H2639   1.108   1_556  S
C2641      C2642   1.405       .  A
C2641      C2646   1.410       .  A
C2641      H2648   1.084       .  S
C2642      C2643   1.412       .  A
C2643      C2644   1.398       .  A
C2644      C2645   1.403       .  A
C2644      H2649   1.085       .  S
C2645      C2646   1.418       .  A
C2646      C2647   1.504       .  S
C2647      H2651   1.111       .  S
C2647      H2652   1.106       .  S
C2647      H2653   1.104       .  S
C2650      H2654   1.108       .  S
C2650      H2655   1.108   1_554  S
C2650      H2656   1.111   1_554  S
C2657      C2662   1.407       .  A
C2657      H2664   1.084       .  S
C2658      C2659   1.415   1_554  A
C2659      C2660   1.406       .  A
C2659      C2666   1.508       .  S
C2660      C2661   1.404       .  A
C2660      H2665   1.084       .  S
C2662      C2663   1.503       .  S
C2663      H2667   1.111       .  S
C2663      H2668   1.111       .  S
C2663      H2669   1.105       .  S
C2666      H2670   1.106       .  S
C2666      H2671   1.111       .  S
C2666      H2672   1.111       .  S
C2673      C2674   1.402       .  A
C2673      C2678   1.399       .  A
C2673      H2680   1.085       .  S
C2674      C2675   1.414       .  A
C2675      C2676   1.405   1_556  A
C2676      C2677   1.402   1_454  A
C2677      C2678   1.413   1_655  A
C2678      C2679   1.508   1_455  S
C2679      H2683   1.111   1_655  S
C2679      H2684   1.106       .  S
C2679      H2685   1.103       .  S
C2682      H2686   1.104       .  S
C2682      H2688   1.111       .  S
C2689      C2690   1.409       .  A
C2689      C2694   1.403       .  A
C2689      H2696   1.084       .  S
C2690      C2691   1.420       .  A
C2691      C2692   1.406       .  A
C2691      C2698   1.502   1_556  S
C2692      C2693   1.400       .  A
C2692      H2697   1.084   1_556  S
C2693      C2694   1.410       .  A
C2694      C2695   1.506       .  S
C2695      H2699   1.111       .  S
C2695      H2700   1.110       .  S
C2695      H2701   1.105       .  S
C2698      H2702   1.097       .  S
C2698      H2703   1.096       .  S
C2698      H2704   1.111       .  S
C2705      C2710   1.397       .  A
C2705      H2712   1.085       .  S
C2706      C2707   1.414       .  A
C2707      C2708   1.406       .  A
C2707      C2714   1.508       .  S
C2708      H2713   1.085       .  S
C2709      C2710   1.413       .  A
C2710      C2711   1.504       .  S
C2711      H2715   1.111       .  S
C2711      H2716   1.108       .  S
C2711      H2717   1.108       .  S
C2714      H2718   1.110       .  S
C2714      H2719   1.107       .  S
C2714      H2720   1.109       .  S
C2721      C2722   1.408       .  A
C2721      C2726   1.403       .  A
C2721      H2728   1.084       .  S
C2722      C2723   1.419       .  A
C2723      C2724   1.399       .  A
C2723      C2730   1.506       .  S
C2724      C2725   1.399       .  A
C2724      H2729   1.085       .  S
C2725      C2726   1.413       .  A
C2726      C2727   1.509       .  S
C2727      H2731   1.109       .  S
C2727      H2732   1.110       .  S
C2727      H2733   1.107       .  S
C2730      H2735   1.099       .  S
C2730      H2736   1.111       .  S
C2737      C2738   1.404       .  A
C2737      C2742   1.403       .  A
C2737      H2744   1.084       .  S
C2738      C2739   1.412       .  A
C2739      C2740   1.398       .  A
C2740      C2741   1.404       .  A
C2740      H2745   1.084       .  S
C2741      C2742   1.413       .  A
C2742      C2743   1.508       .  S
C2743      H2747   1.111       .  S
C2743      H2748   1.107   1_556  S
C2743      H2749   1.109       .  S
C2746      H2750   1.109       .  S
C2746      H2751   1.107   1_554  S
C2746      H2752   1.111       .  S
C2753      C2754   1.406       .  A
C2753      C2758   1.412   1_565  A
C2753      H2760   1.084       .  S
C2754      C2755   1.413   1_565  A
C2755      C2756   1.400       .  A
C2755      C2762   1.510   1_545  S
C2756      C2757   1.404       .  A
C2756      H2761   1.079       .  S
C2757      C2758   1.418       .  A
C2758      C2759   1.507       .  S
C2759      H2763   1.111   1_556  S
C2759      H2764   1.111       .  S
C2759      H2765   1.108   1_556  S
C2762      H2766   1.108       .  S
C2762      H2767   1.111       .  S
C2762      H2768   1.111   1_565  S
C2769      C2770   1.406       .  A
C2769      C2774   1.398       .  A
C2769      H2776   1.084       .  S
C2770      C2771   1.416       .  A
C2771      C2772   1.409       .  A
C2771      C2778   1.506       .  S
C2772      C2773   1.406   1_455  A
C2772      H2777   1.084   1_455  S
C2773      C2774   1.412   1_655  A
C2774      C2775   1.510   1_455  S
C2775      H2780   1.111   1_655  S
C2775      H2781   1.108       .  S
C2778      H2782   1.109       .  S
C2778      H2783   1.111       .  S
C2785      C2786   1.407       .  A
C2785      C2790   1.408       .  A
C2785      H2792   1.084       .  S
C2786      C2787   1.419       .  A
C2787      C2788   1.400       .  A
C2788      C2789   1.400       .  A
C2788      H2793   1.085       .  S
C2789      C2790   1.413       .  A
C2790      C2791   1.506       .  S
C2791      H2795   1.111       .  S
C2791      H2796   1.106       .  S
C2791      H2797   1.109       .  S
C2794      H2798   1.107       .  S
C2794      H2799   1.106       .  S
C2794      H2800   1.111       .  S
C2801      C2802   1.398       .  A
C2801      C2806   1.402   1_455  A
C2802      C2803   1.414       .  A
C2803      C2804   1.404       .  A
C2803      C2810   1.506       .  S
C2804      C2805   1.403   1_455  A
C2804      H2809   1.084   1_455  S
C2805      C2806   1.412       .  A
C2807      H2811   1.111       .  S
C2807      H2812   1.104       .  S
C2807      H2813   1.111       .  S
C2810      H2814   1.107       .  S
C2810      H2815   1.103       .  S
C2810      H2816   1.111       .  S
C2817      C2818   1.404       .  A
C2817      C2822   1.406       .  A
C2817      H2824   1.084       .  S
C2818      C2819   1.423       .  A
C2819      C2820   1.404       .  A
C2819      C2826   1.501       .  S
C2820      C2821   1.398       .  A
C2821      C2822   1.415       .  A
C2822      C2823   1.507       .  S
C2823      H2827   1.111       .  S
C2823      H2828   1.105       .  S
C2823      H2829   1.109       .  S
C2826      H2830   1.110       .  S
C2833      C2834   1.403   1_545  A
C2833      C2838   1.400       .  A
C2833      H2840   1.085   1_545  S
C2834      C2835   1.413   1_565  A
C2835      C2836   1.404       .  A
C2836      C2837   1.400       .  A
C2837      C2838   1.411       .  A
C2838      C2839   1.507       .  S
C2839      H2843   1.111       .  S
C2839      H2844   1.108       .  S
C2839      H2845   1.110       .  S
C2842      H2846   1.111   1_556  S
C2842      H2847   1.104       .  S
C2842      H2848   1.111   1_565  S
C2849      C2850   1.400       .  A
C2849      C2854   1.404       .  A
C2849      H2856   1.085       .  S
C2850      C2851   1.413       .  A
C2851      C2852   1.401       .  A
C2852      C2853   1.403       .  A
C2853      C2854   1.414       .  A
C2854      C2855   1.501       .  S
C2855      H2859   1.112       .  S
C2855      H2860   1.103       .  S
C2855      H2861   1.111       .  S
C2858      H2863   1.108   1_554  S
C2858      H2864   1.111   1_554  S
C2865      C2866   1.404       .  A
C2865      C2870   1.399       .  A
C2865      H2872   1.084       .  S
C2866      C2867   1.417       .  A
C2867      C2868   1.406       .  A
C2867      C2874   1.502       .  S
C2868      C2869   1.402       .  A
C2868      H2873   1.085       .  S
C2869      C2870   1.407       .  A
C2871      H2875   1.111       .  S
C2871      H2876   1.106       .  S
C2871      H2877   1.110   1_556  S
C2874      H2878   1.109       .  S
C2874      H2879   1.108       .  S
C2874      H2880   1.111       .  S
C2881      C2886   1.406       .  A
C2881      H2888   1.084       .  S
C2882      C2883   1.412   1_554  A
C2883      C2884   1.399   1_556  A
C2883      C2890   1.510       .  S
C2884      H2889   1.084   1_554  S
C2885      C2886   1.417       .  A
C2886      C2887   1.504       .  S
C2887      H2891   1.111       .  S
C2887      H2892   1.103       .  S
C2887      H2893   1.105       .  S
C2890      H2894   1.107       .  S
C2890      H2895   1.111       .  S
C2890      H2896   1.111       .  S
C2897      C2898   1.406       .  A
C2897      C2902   1.405       .  A
C2897      H2904   1.084       .  S
C2899      C2900   1.404       .  A
C2899      C2906   1.509       .  S
C2900      C2901   1.402       .  A
C2900      H2905   1.085       .  S
C2902      C2903   1.505       .  S
C2903      H2907   1.111       .  S
C2903      H2908   1.111       .  S
C2903      H2909   1.104       .  S
C2906      H2910   1.109       .  S
C2906      H2911   1.111       .  S
C2906      H2912   1.111       .  S
C2913      C2918   1.406       .  A
C2913      H2920   1.084       .  S
C2914      C2915   1.412       .  A
C2915      C2916   1.402       .  A
C2915      C2922   1.506       .  S
C2916      C2917   1.406       .  A
C2916      H2921   1.084       .  S
C2918      C2919   1.507       .  S
C2919      H2923   1.111       .  S
C2919      H2924   1.111       .  S
C2919      H2925   1.106       .  S
C2922      H2926   1.101       .  S
C2922      H2927   1.107       .  S
C2922      H2928   1.111       .  S
C2929      C2930   1.405       .  A
C2929      C2934   1.403       .  A
C2929      H2936   1.084       .  S
C2930      C2931   1.413       .  A
C2931      C2932   1.404       .  A
C2931      C2938   1.508       .  S
C2932      C2933   1.406       .  A
C2932      H2937   1.084       .  S
C2933      C2934   1.415       .  A
C2934      C2935   1.509   1_556  S
C2935      H2939   1.111       .  S
C2935      H2940   1.106       .  S
C2935      H2941   1.107       .  S
C2938      H2942   1.111       .  S
C2938      H2943   1.108       .  S
C2938      H2944   1.111       .  S
