geometry optimzed in LAMMPS
_audit_creation_date              2020-12-01 
_audit_creation_method            'lammps2cif' 
_symmetry_space_group_name_H-M    'P1' 
_symmetry_Int_Tables_number       1 
_symmetry_cell_setting            triclinic 
loop_ 
_symmetry_equiv_pos_as_xyz 
  x,y,z 
_cell_length_a                    47.56475645 
_cell_length_b                    47.61805622401914 
_cell_length_c                    97.22544785921296 
_cell_angle_alpha                 90.02410342470365 
_cell_angle_beta                  89.91559245752396 
_cell_angle_gamma                 90.03579757329615 
loop_ 
_atom_site_label 
_atom_site_type_symbol 
_atom_site_fract_x 
_atom_site_fract_y 
_atom_site_fract_z 
_atom_site_charge 
O1          O  0.80944246  0.41087990  0.04827906    -0.57100
C2          C  0.82473724  0.34141637  0.07110993     0.75600
O3          O  0.87726767  0.40835536  0.08416456    -0.58200
C4          C  0.82047031  0.43478528  0.04639193     0.75500
C5          C  0.80064323  0.43098481  0.09073284     0.77900
Cd6        Cd  0.83396870  0.40174949  0.07051889     1.37500
O7          O  0.82498709  0.35610810  0.08193568    -0.57100
O8          O  0.78929472  0.41411380  0.08232001    -0.55900
C9          C  0.89433918  0.40496611  0.07434301     0.77900
O10         O  0.82704645  0.43321921  0.08998606    -0.58200
O11         O  0.82807980  0.35478167  0.05998218    -0.56700
O12         O  0.83711550  0.44308151  0.05564333    -0.56700
O13         O  0.88340929  0.39946794  0.06278861    -0.55900
O14         O  0.15527402  0.42514948  0.04949819    -0.57100
C15         C  0.18211016  0.35413811  0.07050193     0.75600
O16         O  0.17114933  0.44166796  0.09405410    -0.58200
C17         C  0.17551336  0.44207184  0.04795119     0.75500
C18         C  0.10603228  0.41342512  0.07838099     0.77900
Cd19       Cd  0.16597197  0.41234360  0.07335173     1.37500
O20         O  0.18309368  0.37113996  0.06053887    -0.57100
O21         O  0.12104953  0.39231241  0.08115185    -0.55900
C22         C  0.19755176  0.43897949  0.09495286     0.77900
O23         O  0.11906585  0.43464769  0.07379153    -0.58200
O24         O  0.17437115  0.36439022  0.08189741    -0.56700
O25         O  0.19184241  0.44485456  0.05812051    -0.56700
O26         O  0.20903286  0.42394041  0.08585250    -0.55900
O27         O  0.82749137  0.56299777  0.95518000    -0.57100
C28         C  0.84425153  0.63347834  0.93412168     0.75600
O29         O  0.90058903  0.55412724  0.92723779    -0.58200
C30         C  0.84006052  0.54019487  0.95783625     0.75500
C31         C  0.82424805  0.55207688  0.91090079     0.77900
Cd32       Cd  0.85483973  0.57393899  0.93419037     1.37500
O33         O  0.84861892  0.62030669  0.94520788    -0.57100
O34         O  0.81271261  0.55608985  0.92248746    -0.55900
C35         C  0.91521410  0.57249783  0.93335835     0.77900
O36         O  0.85006561  0.55822995  0.91016591    -0.58200
O37         O  0.84355682  0.61876812  0.92329361    -0.56700
O38         O  0.85888219  0.53304354  0.94937195    -0.56700
O39         O  0.90166769  0.59131360  0.93964559    -0.55900
O40         O  0.20784693  0.62793778  0.94234399    -0.57100
C41         C  0.19658446  0.55148917  0.96017800     0.75600
O42         O  0.14065324  0.57593094  0.92362319    -0.58200
C43         C  0.19469989  0.64296278  0.93377681     0.75500
C44         C  0.21840945  0.55670115  0.91443708     0.77900
Cd45       Cd  0.18552898  0.58307215  0.93553868     1.37500
O46         O  0.19823993  0.57800576  0.96000658    -0.57100
O47         O  0.22954337  0.57268855  0.92327232    -0.55900
C48         C  0.12581368  0.57615498  0.93443360     0.77900
O49         O  0.19213789  0.55332847  0.91543589    -0.58200
O50         O  0.19144880  0.53985698  0.94875710    -0.56700
O51         O  0.17755713  0.63013721  0.92608001    -0.56700
O52         O  0.13864961  0.58065531  0.94558545    -0.55900
O53         O  0.85626673  0.03114076  0.05441834    -0.57100
C54         C  0.83227576  0.12987030  0.07121630     0.75600
O55         O  0.83548423  0.04465690  0.09118607    -0.58200
C56         C  0.83966149  0.03789431  0.04486123     0.75500
C57         C  0.90547626  0.07074451  0.07106050     0.77900
Cd58       Cd  0.84499252  0.07049997  0.06960259     1.37500
O59         O  0.82324257  0.11464754  0.06151854    -0.57100
O60         O  0.89065549  0.05704492  0.07956299    -0.55900
C61         C  0.80936913  0.04172687  0.08926471     0.77900
O62         O  0.89205037  0.08474212  0.06215011    -0.58200
O63         O  0.84662405  0.11742417  0.08031479    -0.56700
O64         O  0.82528922  0.05994697  0.04667340    -0.56700
O65         O  0.79969385  0.05281268  0.07845667    -0.55900
O66         O  0.19709899  0.08121425  0.03778706    -0.57100
C67         C  0.18779379  0.14428045  0.06043482     0.75600
O68         O  0.12984769  0.06815072  0.05413920    -0.58200
C69         C  0.19317187  0.05507468  0.03642033     0.75500
C70         C  0.20375760  0.05699811  0.08416120     0.77900
Cd71       Cd  0.17674942  0.08439072  0.06126609     1.37500
O72         O  0.16845793  0.13291480  0.05345958    -0.57100
O73         O  0.21662586  0.06170762  0.07298332    -0.55900
C74         C  0.11684927  0.07697246  0.06462038     0.77900
O75         O  0.17870660  0.06561335  0.08472744    -0.58200
O76         O  0.20276117  0.12771916  0.06745852    -0.56700
O77         O  0.18261608  0.04266128  0.04670835    -0.56700
O78         O  0.13161529  0.08963737  0.07347616    -0.55900
O79         O  0.83550500  0.90630816  0.95419902    -0.57100
C80         C  0.84050449  0.84410954  0.92748784     0.75600
O81         O  0.84162551  0.93740758  0.91132842    -0.58200
C82         C  0.84078179  0.93219746  0.95559978     0.75500
C83         C  0.91134209  0.90480728  0.92758571     0.77900
Cd84       Cd  0.85087955  0.90355535  0.92990404     1.37500
O85         O  0.83015812  0.85860473  0.93716393    -0.57100
O86         O  0.89902443  0.89857337  0.93871077    -0.55900
C87         C  0.81554874  0.93270167  0.91027017     0.77900
O88         O  0.89559093  0.91028166  0.91747187    -0.58200
O89         O  0.85460768  0.85753843  0.91865240    -0.56700
O90         O  0.85038156  0.94462501  0.94511040    -0.56700
O91         O  0.80580318  0.91416424  0.91826416    -0.55900
O92         O  0.20909946  0.92621657  0.94540475    -0.57100
C93         C  0.19731831  0.85366197  0.92617413     0.75600
O94         O  0.13660893  0.90829625  0.91330436    -0.58200
C95         C  0.19605339  0.94909941  0.94720353     0.75500
C96         C  0.21277242  0.94102085  0.90198965     0.77900
Cd97       Cd  0.18357865  0.91282888  0.92424786     1.37500
O98         O  0.19929772  0.86997433  0.93639600    -0.57100
O99         O  0.22552078  0.92604175  0.91071383    -0.55900
C100        C  0.12298537  0.90989918  0.92447790     0.77900
O101        O  0.18641665  0.94278617  0.90350337    -0.58200
O102        O  0.18988707  0.86489587  0.91497683    -0.56700
O103        O  0.17812502  0.95543434  0.93812071    -0.56700
O104        O  0.13746505  0.91212359  0.93528729    -0.55900
O105        O  0.31593646  0.93252892  0.20424823    -0.57100
C106        C  0.38210232  0.91859276  0.18330909     0.75600
O107        O  0.30747777  0.86483590  0.18671027    -0.58200
C108        C  0.28976580  0.92794237  0.20495961     0.75500
C109        C  0.29817839  0.94446839  0.15871640     0.77900
Cd110      Cd  0.32203692  0.91253011  0.18091185     1.37500
O111        O  0.36839216  0.90133847  0.19053849    -0.57100
O112        O  0.30754201  0.95615625  0.16947926    -0.55900
C113        C  0.31725133  0.85330927  0.17599719     0.77900
O114        O  0.30033501  0.91805255  0.15826181    -0.58200
O115        O  0.36773247  0.93423306  0.17550018    -0.56700
O116        O  0.27875758  0.91681502  0.19444661    -0.56700
O117        O  0.32818874  0.86956301  0.16722457    -0.55900
O118        O  0.33168322  0.57581616  0.20846827    -0.57100
C119        C  0.39647523  0.57034921  0.18215380     0.75600
O120        O  0.31264924  0.57601086  0.16216451    -0.58200
C121        C  0.30555408  0.58053837  0.20885978     0.75500
C122        C  0.33472241  0.64411515  0.18003812     0.77900
Cd123      Cd  0.33740304  0.58445622  0.18363828     1.37500
O124        O  0.37984259  0.55782198  0.19023988    -0.57100
O125        O  0.34674780  0.63302716  0.19026959    -0.55900
C126        C  0.30904384  0.54997643  0.16377951     0.77900
O127        O  0.32447452  0.62731478  0.17128872    -0.58200
O128        O  0.38554012  0.58884382  0.17451742    -0.56700
O129        O  0.29420374  0.58638763  0.19747179    -0.56700
O130        O  0.31946556  0.53946042  0.17458551    -0.55900
O131        O  0.09895554  0.94318240  0.30734336    -0.57100
C132        C  0.17759606  0.94460508  0.29285681     0.75600
O133        O  0.16405071  0.95070638  0.34109708    -0.58200
C134        C  0.08559816  0.95018232  0.31807959     0.75500
C135        C  0.14968513  0.88102896  0.32524999     0.77900
Cd136      Cd  0.14561146  0.93971552  0.31832100     1.37500
O137        O  0.18341012  0.92697412  0.30213349    -0.57100
O138        O  0.16746242  0.89884141  0.32943880    -0.55900
C139        C  0.16967579  0.97621618  0.33879156     0.77900
O140        O  0.12984730  0.89065790  0.31802144    -0.58200
O141        O  0.15731852  0.96089903  0.29553348    -0.56700
O142        O  0.10025164  0.95319146  0.32879996    -0.56700
O143        O  0.16386839  0.98505592  0.32685867    -0.55900
O144        O  0.12735329  0.58909455  0.32973674    -0.57100
C145        C  0.19745220  0.60494393  0.29693456     0.75600
O146        O  0.15754494  0.65661992  0.33620050    -0.58200
C147        C  0.11092517  0.60342227  0.32230448     0.75500
C148        C  0.19953514  0.57970828  0.34309465     0.77900
Cd149      Cd  0.17074391  0.61422116  0.32322874     1.37500
O150        O  0.17395249  0.59380332  0.29972764    -0.57100
O151        O  0.19162361  0.57038223  0.33156203    -0.55900
C152        C  0.17447384  0.67299944  0.33014550     0.77900
O153        O  0.19427524  0.60527449  0.34536717    -0.58200
O154        O  0.20828064  0.61997139  0.30623417    -0.56700
O155        O  0.12243105  0.62229045  0.31508572    -0.56700
O156        O  0.19012166  0.66189622  0.32115246    -0.55900
O157        O  0.70603749  0.58363001  0.19772993    -0.57100
C158        C  0.60695057  0.56015204  0.18219030     0.75600
O159        O  0.68506428  0.62177792  0.17506893    -0.58200
C160        C  0.69689882  0.57005349  0.20794925     0.75500
C161        C  0.69136358  0.54149029  0.16144529     0.77900
Cd162      Cd  0.66549255  0.57610850  0.18258010     1.37500
O163        O  0.62166226  0.55810416  0.19298762    -0.57100
O164        O  0.68479824  0.53152824  0.17307909    -0.55900
C165        C  0.66490200  0.63686564  0.17918331     0.77900
O166        O  0.68602755  0.56721058  0.15971151    -0.58200
O167        O  0.61957883  0.56885143  0.17155199    -0.56700
O168        O  0.67293514  0.55890456  0.20649621    -0.56700
O169        O  0.64465334  0.62378385  0.18470506    -0.55900
O170        O  0.60827090  0.91888480  0.18865706    -0.57100
C171        C  0.68589465  0.92310523  0.20099246     0.75600
O172        O  0.65152705  0.86388810  0.16432270    -0.58200
C173        C  0.59342645  0.92039058  0.17790926     0.75500
C174        C  0.68296144  0.94187018  0.15678829     0.77900
Cd175      Cd  0.65314340  0.90926389  0.17703946     1.37500
O176        O  0.66165284  0.93327293  0.19897085    -0.57100
O177        O  0.66838144  0.95358812  0.16602957    -0.55900
C178        C  0.65424060  0.84862120  0.17487454     0.77900
O179        O  0.68262269  0.91531986  0.15672449    -0.58200
O180        O  0.69524759  0.90698336  0.19171306    -0.56700
O181        O  0.60653087  0.91767533  0.16667788    -0.56700
O182        O  0.65592266  0.86145391  0.18623114    -0.55900
O183        O  0.80776955  0.94303991  0.29413442    -0.57100
C184        C  0.87469982  0.93934318  0.31881438     0.75600
O185        O  0.78998058  0.93080792  0.33854973    -0.58200
C186        C  0.78539359  0.92954339  0.29185206     0.75500
C187        C  0.82247695  0.86383497  0.32008707     0.77900
Cd188      Cd  0.81642920  0.92368651  0.31715283     1.37500
O189        O  0.85994203  0.94559854  0.30844652    -0.57100
O190        O  0.83714877  0.87794856  0.31171873    -0.55900
C191        C  0.78750192  0.95711390  0.33755590     0.77900
O192        O  0.80423615  0.87730211  0.32691610    -0.58200
O193        O  0.86218291  0.92700983  0.32858742    -0.56700
O194        O  0.77728898  0.91325202  0.30133195    -0.56700
O195        O  0.79876330  0.96812745  0.32707785    -0.55900
O196        O  0.82889641  0.56857397  0.29814687    -0.57100
C197        C  0.90080370  0.58361619  0.32209058     0.75600
O198        O  0.82895162  0.63750713  0.33109042    -0.58200
C199        C  0.80658347  0.58251919  0.29613598     0.75500
C200        C  0.81399718  0.55946976  0.34042624     0.77900
Cd201      Cd  0.84118583  0.59307492  0.31993989     1.37500
O202        O  0.88782606  0.58000989  0.31087386    -0.57100
O203        O  0.82651199  0.54836978  0.33031723    -0.55900
C204        C  0.83940250  0.65320691  0.32192525     0.77900
O205        O  0.81478600  0.58597218  0.34108194    -0.58200
O206        O  0.88597343  0.59073983  0.33230708    -0.56700
O207        O  0.80078018  0.60067263  0.30514638    -0.56700
O208        O  0.85082162  0.64089845  0.31180490    -0.55900
O209        O  0.68839952  0.59641417  0.54311967    -0.57100
C210        C  0.68202715  0.66436449  0.56873674     0.75600
O211        O  0.62457180  0.59861288  0.57920961    -0.58200
C212        C  0.67748449  0.57223774  0.54202746     0.75500
C213        C  0.70346576  0.57512468  0.58491398     0.77900
Cd214      Cd  0.66849347  0.60558230  0.56616787     1.37500
O215        O  0.67857860  0.65296908  0.55709709    -0.57100
O216        O  0.71343807  0.58618479  0.57413466    -0.55900
C217        C  0.60852479  0.60411232  0.56920582     0.77900
O218        O  0.67738553  0.57853686  0.58690318    -0.58200
O219        O  0.67978821  0.64836228  0.57901845    -0.56700
O220        O  0.66264896  0.56405244  0.55205763    -0.56700
O221        O  0.62030541  0.61110462  0.55806658    -0.55900
O222        O  0.31300039  0.64915254  0.56366094    -0.57100
C223        C  0.32871781  0.57380774  0.54460453     0.75600
O224        O  0.38209505  0.58913963  0.58010677    -0.58200
C225        C  0.32867252  0.66476001  0.57088036     0.75500
C226        C  0.30326741  0.58338351  0.59148906     0.77900
Cd227      Cd  0.33781241  0.60525404  0.56963562     1.37500
O228        O  0.32343977  0.59975983  0.54538405    -0.57100
O229        O  0.29261616  0.59351241  0.58066183    -0.55900
C230        C  0.39787050  0.60286702  0.57205315     0.77900
O231        O  0.32977453  0.58317658  0.59199169    -0.58200
O232        O  0.33793253  0.56244784  0.55545051    -0.56700
O233        O  0.34728742  0.65261691  0.57795575    -0.56700
O234        O  0.38569306  0.61707307  0.56281038    -0.55900
O235        O  0.69101386  0.43265077  0.45362038    -0.57100
C236        C  0.67821802  0.36551685  0.43118903     0.75600
O237        O  0.62547198  0.42539244  0.41682079    -0.58200
C238        C  0.67867233  0.45568573  0.45600515     0.75500
C239        C  0.70416607  0.45485834  0.41221581     0.77900
Cd240      Cd  0.66867768  0.42520910  0.43103900     1.37500
O241        O  0.67613433  0.37995166  0.44202449    -0.57100
O242        O  0.71428262  0.43806374  0.42096301    -0.55900
C243        C  0.60872530  0.42659555  0.42691456     0.77900
O244        O  0.67773591  0.45763115  0.41225191    -0.58200
O245        O  0.67685336  0.37906936  0.42001755    -0.56700
O246        O  0.66266090  0.46477256  0.44663201    -0.56700
O247        O  0.61999406  0.42699863  0.43868089    -0.55900
O248        O  0.32923750  0.38598836  0.44296039    -0.57100
C249        C  0.32904442  0.46546034  0.45579896     0.75600
O250        O  0.38245307  0.44779899  0.42175065    -0.58200
C251        C  0.32091996  0.37303026  0.43235240     0.75500
C252        C  0.30361175  0.45797929  0.41051841     0.77900
Cd253      Cd  0.33696817  0.43143137  0.43147048     1.37500
O254        O  0.31318159  0.44480434  0.45316529    -0.57100
O255        O  0.29468325  0.45431841  0.42263260    -0.55900
C256        C  0.39708235  0.42853044  0.42714972     0.77900
O257        O  0.32810748  0.44891455  0.40799812    -0.58200
O258        O  0.34838278  0.47016016  0.44718841    -0.56700
O259        O  0.31898923  0.38743866  0.42147752    -0.56700
O260        O  0.38372909  0.41094619  0.43435072    -0.55900
O261        O  0.68728295  0.88888270  0.56499791    -0.57100
C262        C  0.66915982  0.95918005  0.54579417     0.75600
O263        O  0.61806481  0.95284471  0.58002903    -0.58200
C264        C  0.67844500  0.87368316  0.57475153     0.75500
C265        C  0.69861259  0.95727280  0.59217330     0.77900
Cd266      Cd  0.66261495  0.93153257  0.57206327     1.37500
O267        O  0.66858493  0.93269516  0.54673045    -0.57100
O268        O  0.70805377  0.94792016  0.58091517    -0.55900
C269        C  0.60243905  0.93340658  0.57555526     0.77900
O270        O  0.67250503  0.95425826  0.59419492    -0.58200
O271        O  0.66688828  0.97259030  0.55695312    -0.56700
O272        O  0.66275460  0.88563091  0.58349758    -0.56700
O273        O  0.61481525  0.91338082  0.56952747    -0.55900
O274        O  0.31164616  0.94513642  0.54680025    -0.57100
C275        C  0.32058666  0.87527165  0.56936391     0.75600
O276        O  0.37932303  0.92462978  0.56199213    -0.58200
C277        C  0.32382040  0.96858758  0.54525364     0.75500
C278        C  0.29596688  0.96066106  0.59008542     0.77900
Cd279      Cd  0.33151373  0.93498340  0.56955033     1.37500
O280        O  0.31585169  0.89040441  0.55896238    -0.57100
O281        O  0.28683385  0.95480863  0.57821027    -0.55900
C282        C  0.39175300  0.93581521  0.57207359     0.77900
O283        O  0.32129249  0.95433100  0.59241500    -0.58200
O284        O  0.32908229  0.88812391  0.57995165    -0.56700
O285        O  0.33897038  0.97664025  0.55517607    -0.56700
O286        O  0.37617890  0.94708484  0.58108489    -0.55900
O287        O  0.65596026  0.08975041  0.45616490    -0.57100
C288        C  0.66385195  0.15527882  0.43067613     0.75600
O289        O  0.65950915  0.06718996  0.41045926    -0.58200
C290        C  0.66316754  0.06417659  0.45600584     0.75500
C291        C  0.59289117  0.09073771  0.42845896     0.77900
Cd292      Cd  0.65301167  0.09558434  0.43115170     1.37500
O293        O  0.67689368  0.13924502  0.43884023    -0.57100
O294        O  0.60888580  0.09112520  0.41805685    -0.55900
C295        C  0.68602922  0.06900042  0.41004007     0.77900
O296        O  0.60485400  0.09217625  0.44002296    -0.58200
O297        O  0.64707664  0.14346121  0.42247290    -0.56700
O298        O  0.66645115  0.05316905  0.44427003    -0.56700
O299        O  0.69745774  0.08358152  0.41938213    -0.55900
O300        O  0.30733299  0.09438733  0.45325578    -0.57100
C301        C  0.31351328  0.16237704  0.42869551     0.75600
O302        O  0.36658161  0.08582412  0.41888185    -0.58200
C303        C  0.31908135  0.07065707  0.45440402     0.75500
C304        C  0.28355490  0.07885127  0.40968354     0.77900
Cd305      Cd  0.32254307  0.10286381  0.42927473     1.37500
O306        O  0.30737642  0.14788174  0.43920523    -0.57100
O307        O  0.27523882  0.08946499  0.42089001    -0.55900
C308        C  0.38249904  0.10278791  0.42521175     0.77900
O309        O  0.30979064  0.07954763  0.40757501    -0.58200
O310        O  0.32201186  0.14885768  0.41830440    -0.56700
O311        O  0.33142853  0.06172562  0.44377328    -0.56700
O312        O  0.37052563  0.11994643  0.43321176    -0.55900
O313        O  0.12079950  0.45523110  0.69313759    -0.57100
C314        C  0.19859506  0.44622175  0.70847927     0.75600
O315        O  0.17994654  0.39677661  0.67162123    -0.58200
C316        C  0.10746133  0.45425610  0.68188499     0.75500
C317        C  0.19369540  0.47819639  0.66340261     0.77900
Cd318      Cd  0.16666997  0.44139295  0.68320702     1.37500
O319        O  0.17718472  0.46141474  0.70644842    -0.57100
O320        O  0.18014207  0.48763753  0.67358908    -0.55900
C321        C  0.16434083  0.38110493  0.67885066     0.77900
O322        O  0.19470982  0.45172303  0.66241901    -0.58200
O323        O  0.20555365  0.43021924  0.69870041    -0.56700
O324        O  0.12170071  0.44784215  0.67135506    -0.56700
O325        O  0.14970629  0.39351683  0.68787243    -0.55900
O326        O  0.17062673  0.09748409  0.70475818    -0.57100
C327        C  0.10265484  0.09610195  0.68038145     0.75600
O328        O  0.16617060  0.15438626  0.66856853    -0.58200
C329        C  0.19707696  0.09548400  0.70378225     0.75500
C330        C  0.18843228  0.07612509  0.65882272     0.77900
Cd331      Cd  0.16238871  0.10866553  0.68031022     1.37500
O332        O  0.11967047  0.08347547  0.68821328    -0.57100
O333        O  0.17117623  0.06527806  0.66719793    -0.55900
C334        C  0.16545147  0.16917643  0.67938548     0.77900
O335        O  0.19241990  0.10226793  0.65996884    -0.58200
O336        O  0.11339309  0.11403999  0.67234050    -0.56700
O337        O  0.20728131  0.09914704  0.69190265    -0.56700
O338        O  0.16329794  0.15591984  0.69059805    -0.55900
O339        O  0.31139077  0.10073833  0.79800139    -0.57100
C340        C  0.40839337  0.07610533  0.81680045     0.75600
O341        O  0.33954821  0.13542604  0.82456761    -0.58200
C342        C  0.31923287  0.08561424  0.78801405     0.75500
C343        C  0.31798712  0.05601809  0.83179311     0.77900
Cd344      Cd  0.35022839  0.09051328  0.81327291     1.37500
O345        O  0.39624071  0.07335395  0.80531615    -0.57100
O346        O  0.32824585  0.04618040  0.82079279    -0.55900
C347        C  0.35354302  0.15055926  0.81634839     0.77900
O348        O  0.32305052  0.08159659  0.83428012    -0.58200
O349        O  0.39314301  0.08386317  0.82675285    -0.56700
O350        O  0.34197172  0.07223487  0.78967887    -0.56700
O351        O  0.36582856  0.13779265  0.80663398    -0.55900
O352        O  0.39389368  0.44049621  0.80878524    -0.57100
C353        C  0.31571941  0.43513764  0.79416056     0.75600
O354        O  0.37050944  0.37662500  0.81260173    -0.58200
C355        C  0.40801993  0.43592472  0.81958396     0.75500
C356        C  0.32383359  0.45164569  0.84068170     0.77900
Cd357      Cd  0.34938792  0.42219891  0.81808225     1.37500
O358        O  0.33872553  0.44759745  0.79643956    -0.57100
O359        O  0.33238684  0.46433355  0.83004188    -0.55900
C360        C  0.35220869  0.36191147  0.81869372     0.77900
O361        O  0.32782203  0.42546138  0.84087450    -0.58200
O362        O  0.30872548  0.41671034  0.80287347    -0.56700
O363        O  0.39470234  0.42580523  0.82971077    -0.56700
O364        O  0.33199896  0.37512665  0.82416071    -0.55900
O365        O  0.87886487  0.10204496  0.69416584    -0.57100
C366        C  0.80485292  0.08958450  0.70859426     0.75600
O367        O  0.81649737  0.15098080  0.68688081    -0.58200
C368        C  0.89173395  0.08982701  0.68447589     0.75500
C369        C  0.80429416  0.07014988  0.66222505     0.77900
Cd370      Cd  0.83268330  0.10259252  0.68307046     1.37500
O371        O  0.83000717  0.08239043  0.70631013    -0.57100
O372        O  0.81854424  0.05884037  0.67168161    -0.55900
C373        C  0.83419927  0.16259405  0.67901699     0.77900
O374        O  0.80339884  0.09668679  0.66227735    -0.58200
O375        O  0.79245528  0.10236587  0.69895577    -0.56700
O376        O  0.87692840  0.08284860  0.67420621    -0.56700
O377        O  0.85052722  0.14628171  0.67260005    -0.55900
O378        O  0.83220051  0.44397425  0.70284833    -0.57100
C379        C  0.89713630  0.44710286  0.67697474     0.75600
O380        O  0.82860690  0.38948934  0.66680210    -0.58200
C381        C  0.80560865  0.44460241  0.70268831     0.75500
C382        C  0.81114980  0.46899840  0.65739325     0.77900
Cd383      Cd  0.83792544  0.43494181  0.67817590     1.37500
O384        O  0.88150071  0.45843424  0.68592777    -0.57100
O385        O  0.82267364  0.47998557  0.66781319    -0.55900
C386        C  0.83619396  0.37413733  0.67672190     0.77900
O387        O  0.81265051  0.44252113  0.65655133    -0.58200
O388        O  0.88497233  0.43191820  0.66815381    -0.56700
O389        O  0.79405605  0.44134691  0.69109665    -0.56700
O390        O  0.84415431  0.38704209  0.68739654    -0.55900
O391        O  0.69569000  0.40813477  0.79598203    -0.57100
C392        C  0.61874344  0.43499657  0.81883893     0.75600
O393        O  0.65853415  0.37662336  0.82791154    -0.58200
C394        C  0.70044845  0.43268097  0.79168217     0.75500
C395        C  0.71230437  0.45062683  0.83841426     0.77900
Cd396      Cd  0.67776385  0.42110479  0.81862595     1.37500
O397        O  0.63334534  0.43517094  0.82969412    -0.57100
O398        O  0.69404078  0.46278766  0.83111796    -0.55900
C399        C  0.67826729  0.36125391  0.82344584     0.77900
O400        O  0.71436330  0.42441341  0.83670009    -0.58200
O401        O  0.63165610  0.42884630  0.80785495    -0.56700
O402        O  0.69480540  0.45244631  0.79993269    -0.56700
O403        O  0.69813328  0.37393010  0.81743296    -0.55900
O404        O  0.63203057  0.06804693  0.81680879    -0.57100
C405        C  0.70924925  0.08141548  0.80036188     0.75600
O406        O  0.68323363  0.13416661  0.83736245    -0.58200
C407        C  0.61725709  0.07681398  0.82676381     0.75500
C408        C  0.70314652  0.05248441  0.84479469     0.84300
Cd409      Cd  0.67639788  0.08898783  0.82506656     1.37500
O410        O  0.68335203  0.07532084  0.80085877    -0.57100
O411        O  0.68932849  0.04272406  0.83475952    -0.55900
C412        C  0.67469310  0.14960968  0.82764711     0.77900
O413        O  0.70444984  0.07894902  0.84560819    -0.58200
O414        O  0.71992532  0.09050294  0.81139880    -0.56700
O415        O  0.63024074  0.08982877  0.83611872    -0.56700
O416        O  0.66737759  0.13685901  0.81680555    -0.55900
C417        C  0.67319999  0.18080040  0.82860293    -0.11200
C418        C  0.68340716  0.19634510  0.84000462     0.04300
C419        C  0.68232040  0.22578719  0.83982863    -0.11800
C420        C  0.67140417  0.24024728  0.82848104     0.19100
C421        C  0.66073703  0.22491404  0.81729066    -0.08800
C422        C  0.66153061  0.19560361  0.81745587    -0.01800
H423        H  0.69082314  0.23752311  0.84842153     0.05600
C424        C  0.67361486  0.27121135  0.82784707     0.21100
H425        H  0.65331667  0.18438914  0.80863820     0.10800
C426        C  0.69321182  0.28311700  0.81881020    -0.15100
C427        C  0.69538929  0.31221483  0.81726690     0.03800
C428        C  0.67776634  0.33021610  0.82505278    -0.10500
C429        C  0.65835187  0.31809517  0.83425903    -0.00500
C430        C  0.65621930  0.28890188  0.83571084    -0.05600
H431        H  0.70660094  0.26955043  0.81269829     0.06800
H432        H  0.64454657  0.33134695  0.84030070     0.10200
Br433      Br  0.64521221  0.24315227  0.80142111    -0.05300
Br434      Br  0.70022049  0.17936360  0.85590870    -0.02300
Br435      Br  0.72187641  0.32519860  0.80373538     0.00600
Br436      Br  0.62855368  0.27414773  0.84812826    -0.03800
C437        C  0.78915186  0.44748312  0.71550577    -0.11200
C438        C  0.76127039  0.45779922  0.71571568     0.04300
C439        C  0.74601562  0.45772121  0.72804164    -0.11800
C440        C  0.75805911  0.44744733  0.74017262     0.19100
C441        C  0.78581603  0.43739785  0.74001235    -0.08800
C442        C  0.80124663  0.43787163  0.72780746    -0.01800
H443        H  0.72459639  0.46540828  0.72814913     0.05600
C444        C  0.74105720  0.44580827  0.75280399     0.21100
H445        H  0.82242937  0.42953901  0.72783940     0.10800
C446        C  0.72265889  0.42313493  0.75446801    -0.15100
C447        C  0.70855735  0.41891187  0.76690537     0.03800
C448        C  0.71270826  0.43781394  0.77793909    -0.10500
C449        C  0.73014691  0.46133085  0.77596854    -0.00500
C450        C  0.74445541  0.46529325  0.76353615    -0.05600
H451        H  0.71986494  0.40821360  0.74615917     0.06800
H452        H  0.73352359  0.47609292  0.78428584     0.10200
Br453      Br  0.80280153  0.42108029  0.75602156    -0.05300
Br454      Br  0.74296617  0.47281752  0.69973039    -0.02300
Br455      Br  0.68365679  0.38719667  0.76796880     0.00600
Br456      Br  0.76921265  0.49691555  0.76173712    -0.03800
C457        C  0.79083945  0.08442475  0.72192789    -0.11200
C458        C  0.79804734  0.06162077  0.73053941     0.04300
C459        C  0.78479560  0.05851813  0.74331684    -0.11800
C460        C  0.76472540  0.07801876  0.74775440     0.19100
C461        C  0.75753468  0.10072624  0.73923252    -0.08800
C462        C  0.77026557  0.10356707  0.72636617    -0.01800
H463        H  0.79044420  0.04107665  0.74990903     0.05600
C464        C  0.75248126  0.07556380  0.76161144     0.21100
H465        H  0.76468459  0.12136950  0.71999418     0.10800
C466        C  0.76447795  0.09104935  0.77232650    -0.15100
C467        C  0.75148978  0.09251225  0.78520852     0.03800
C468        C  0.72569471  0.07832669  0.78747090    -0.10500
C469        C  0.71451765  0.06172204  0.77680522    -0.00500
C470        C  0.72777915  0.06015533  0.76398425    -0.05600
H471        H  0.78357656  0.10287600  0.77048993     0.06800
H472        H  0.69508752  0.05027243  0.77833734     0.10200
Br473      Br  0.73120734  0.12891726  0.74502774    -0.05300
Br474      Br  0.82520457  0.03369194  0.72540822    -0.02300
Br475      Br  0.76955243  0.11583465  0.79868519     0.00600
Br476      Br  0.71099785  0.03758831  0.74985552    -0.03800
C477        C  0.83618929  0.34291873  0.67603766    -0.11200
C478        C  0.82487443  0.32769623  0.66478730     0.04300
C479        C  0.82538114  0.29830123  0.66488239    -0.11800
C480        C  0.83700459  0.28357531  0.67594430     0.19100
C481        C  0.84857253  0.29844701  0.68704329    -0.08800
C482        C  0.84805965  0.32779598  0.68704939    -0.01800
H483        H  0.81637515  0.28680500  0.65633702     0.05600
C484        C  0.83591197  0.25264843  0.67604447     0.21100
H485        H  0.85698875  0.33878565  0.69576790     0.10800
C486        C  0.85988723  0.23723510  0.67244310    -0.15100
C487        C  0.85988823  0.20786894  0.67314253     0.03800
C488        C  0.83538212  0.19350858  0.67752605    -0.10500
C489        C  0.81139635  0.20920730  0.68104158    -0.00500
C490        C  0.81148862  0.23847812  0.68027174    -0.05600
H491        H  0.87881985  0.24816029  0.66931057     0.06800
H492        H  0.79242227  0.19870085  0.68443669     0.10200
Br493      Br  0.86465141  0.27933960  0.70253353    -0.05300
Br494      Br  0.80779395  0.34504229  0.64904697    -0.02300
Br495      Br  0.89458624  0.18919063  0.66878865     0.00600
Br496      Br  0.77803434  0.25835816  0.68545019    -0.03800
C497        C  0.58803630  0.44024839  0.81894168    -0.11200
C498        C  0.57418840  0.45404281  0.82992405     0.04300
C499        C  0.54479154  0.45546226  0.83013590    -0.11800
C500        C  0.52883359  0.44383550  0.81945520     0.19100
C501        C  0.54258025  0.43157479  0.80814001    -0.08800
C502        C  0.57188078  0.42978448  0.80797483    -0.01800
H503        H  0.53428397  0.46551703  0.83871285     0.05600
C504        C  0.49787551  0.44376085  0.82043088     0.21100
H505        H  0.58197992  0.41937203  0.79938767     0.10800
C506        C  0.48216794  0.46144154  0.81186048    -0.15100
C507        C  0.45277296  0.46012122  0.81173569     0.03800
C508        C  0.43870509  0.44059697  0.82025362    -0.10500
C509        C  0.45455052  0.42385483  0.82926616    -0.00500
C510        C  0.48385521  0.42530758  0.82941574    -0.05600
H511        H  0.49288524  0.47608832  0.80511566     0.06800
H512        H  0.44417160  0.40880394  0.83592638     0.10200
Br513      Br  0.52218016  0.41583074  0.79295857    -0.05300
Br514      Br  0.59385826  0.47240613  0.84463648    -0.02300
Br515      Br  0.43323190  0.48622496  0.80013908     0.00600
Br516      Br  0.50380979  0.40061277  0.84156178    -0.03800
C517        C  0.43881919  0.07120235  0.81861439    -0.11200
C518        C  0.45826065  0.07536346  0.80780406     0.04300
C519        C  0.48697607  0.07230982  0.81028737    -0.11800
C520        C  0.49698361  0.06550915  0.82341242     0.19100
C521        C  0.47773634  0.06155077  0.83424771    -0.08800
C522        C  0.44891963  0.06422074  0.83176396    -0.01800
H523        H  0.50174761  0.07637184  0.80202268     0.05600
C524        C  0.52765010  0.06562246  0.82568849     0.21100
H525        H  0.43435818  0.06123944  0.84022256     0.10800
C526        C  0.53929915  0.08685820  0.83385696    -0.15100
C527        C  0.56837704  0.09047322  0.83470687     0.03800
C528        C  0.58647451  0.07246232  0.82722343    -0.10500
C529        C  0.57468225  0.05071751  0.81932581    -0.00500
C530        C  0.54555999  0.04720912  0.81851282    -0.05600
H531        H  0.52560228  0.10153386  0.83913109     0.06800
H532        H  0.58814610  0.03661111  0.81356964     0.10200
Br533      Br  0.48974911  0.05288171  0.85260073    -0.05300
Br534      Br  0.44767888  0.08821336  0.78981729    -0.02300
Br535      Br  0.58128715  0.12211086  0.84523885     0.00600
Br536      Br  0.53117943  0.01726064  0.80732119    -0.03800
C537        C  0.35504683  0.18152397  0.81767425    -0.11200
C538        C  0.34877805  0.19576474  0.83008664     0.04300
C539        C  0.34921911  0.22513935  0.83045526    -0.11800
C540        C  0.35596693  0.24076484  0.81869665     0.19100
C541        C  0.36309219  0.22668572  0.80646620    -0.08800
C542        C  0.36259036  0.19737042  0.80603471    -0.01800
H543        H  0.34419812  0.23590653  0.83996226     0.05600
C544        C  0.35501161  0.27173179  0.81929072     0.21100
H545        H  0.36757188  0.18697043  0.79642767     0.10800
C546        C  0.38012296  0.28707395  0.81858520    -0.15100
C547        C  0.37983824  0.31645061  0.81857531     0.03800
C548        C  0.35392492  0.33094212  0.81923739    -0.10500
C549        C  0.32889769  0.31543189  0.82037607    -0.00500
C550        C  0.32926961  0.28609739  0.82037443    -0.05600
H551        H  0.40004205  0.27608829  0.81801360     0.06800
H552        H  0.30883177  0.32615286  0.82095846     0.10200
Br553      Br  0.37247209  0.24659163  0.78992096    -0.05300
Br554      Br  0.34061676  0.17677680  0.84705954    -0.02300
Br555      Br  0.41560236  0.33525682  0.81835078     0.00600
Br556      Br  0.29401288  0.26656014  0.82127358    -0.03800
C557        C  0.92257483  0.08512019  0.68471520    -0.11200
C558        C  0.93896832  0.08828664  0.69677728     0.04300
C559        C  0.96834232  0.08694443  0.69594911    -0.11800
C560        C  0.98183456  0.08261672  0.68331154     0.19100
C561        C  0.96561310  0.07792206  0.67146134    -0.08800
C562        C  0.93630847  0.07907741  0.67223436    -0.01800
H563        H  0.98078561  0.09031168  0.70513670     0.05600
C564        C  0.01270045  0.08562030  0.68242885     0.21100
H565        H  0.92430097  0.07632872  0.66286454     0.10800
C566        C  0.03021849  0.06403460  0.68713671    -0.15100
C567        C  0.05956562  0.06657023  0.68636076     0.03800
C568        C  0.07179733  0.09127515  0.68086233    -0.10500
C569        C  0.05396647  0.11269661  0.67607753    -0.00500
C570        C  0.02475554  0.11012690  0.67692196    -0.05600
H571        H  0.02100801  0.04506507  0.69131913     0.06800
H572        H  0.06274920  0.13190525  0.67193918     0.10200
Br573      Br  0.98271873  0.07110346  0.65388671    -0.05300
Br574      Br  0.92305824  0.09474672  0.71468476    -0.02300
Br575      Br  0.08138632  0.03501505  0.69242155     0.00600
Br576      Br  0.00202157  0.14105323  0.67085836    -0.03800
C577        C  0.21542725  0.09033124  0.71583313    -0.11200
C578        C  0.20528420  0.07865890  0.72826985     0.04300
C579        C  0.22317124  0.07646518  0.73963208    -0.11800
C580        C  0.25114968  0.08551488  0.73885488     0.19100
C581        C  0.26162424  0.09617747  0.72639697    -0.08800
C582        C  0.24384710  0.09844411  0.71502083    -0.01800
H583        H  0.21513060  0.06798407  0.74920724     0.05600
C584        C  0.26862627  0.08520168  0.75135982     0.21100
H585        H  0.25215053  0.10741435  0.70561239     0.10800
C586        C  0.28888969  0.06416880  0.75316211    -0.15100
C587        C  0.30584887  0.06362997  0.76494300     0.03800
C588        C  0.30247778  0.08455328  0.77517420    -0.10500
C589        C  0.28203850  0.10550526  0.77320956    -0.00500
C590        C  0.26528098  0.10597224  0.76147394    -0.05600
H591        H  0.29143773  0.04808623  0.74537953     0.06800
H592        H  0.27912346  0.12190082  0.78079813     0.10200
Br593      Br  0.29967249  0.10917132  0.72470409    -0.05300
Br594      Br  0.16770143  0.06457722  0.73045402    -0.02300
Br595      Br  0.33224585  0.03329070  0.76642863     0.00600
Br596      Br  0.23851654  0.13585580  0.75957308    -0.03800
C597        C  0.92796497  0.45096283  0.67703828    -0.11200
C598        C  0.94640938  0.42986997  0.67217790     0.04300
C599        C  0.97545686  0.43381351  0.67306905    -0.11800
C600        C  0.98665863  0.45834644  0.67880808     0.19100
C601        C  0.96845210  0.47953642  0.68349961    -0.08800
C602        C  0.93933628  0.47567355  0.68267204    -0.01800
H603        H  0.98944053  0.41735797  0.66955324     0.05600
C604        C  0.01745282  0.46077095  0.68009593     0.21100
H605        H  0.92554935  0.49206028  0.68643621     0.10800
C606        C  0.03348620  0.46689301  0.66839171    -0.15100
C607        C  0.06287352  0.46625317  0.66885357     0.03800
C608        C  0.07669572  0.45897395  0.68122663    -0.10500
C609        C  0.06045060  0.45410519  0.69309086    -0.00500
C610        C  0.03107541  0.45477350  0.69257615    -0.05600
H611        H  0.02303344  0.47174404  0.65878127     0.06800
H612        H  0.07055614  0.44852096  0.70268743     0.10200
Br613      Br  0.98249836  0.51401205  0.69102531    -0.05300
Br614      Br  0.93368227  0.39425658  0.66523096    -0.02300
Br615      Br  0.08259905  0.47612665  0.65229238     0.00600
Br616      Br  0.01034145  0.44554005  0.70891150    -0.03800
C617        C  0.29756307  0.44141601  0.78213272    -0.11200
C618        C  0.30715956  0.45621450  0.77038900     0.04300
C619        C  0.28929696  0.45968604  0.75906409    -0.11800
C620        C  0.26191271  0.44882736  0.75918608     0.19100
C621        C  0.25197419  0.43506552  0.77101240    -0.08800
C622        C  0.26969133  0.43147872  0.78231201    -0.01800
H623        H  0.29713278  0.47005326  0.74990774     0.05600
C624        C  0.24527828  0.44890745  0.74636760     0.21100
H625        H  0.26162423  0.42047645  0.79123636     0.10800
C626        C  0.24327576  0.42385689  0.73890700    -0.15100
C627        C  0.22824938  0.42260576  0.72660279     0.03800
C628        C  0.21455461  0.44684204  0.72155266    -0.10500
C629        C  0.21626384  0.47192899  0.72917470    -0.00500
C630        C  0.23181897  0.47317485  0.74141781    -0.05600
H631        H  0.25355785  0.40511423  0.74269873     0.06800
H632        H  0.20594326  0.49072071  0.72547508     0.10200
Br633      Br  0.21444278  0.42041718  0.77209401    -0.05300
Br634      Br  0.34466319  0.47074673  0.76859260    -0.02300
Br635      Br  0.22637534  0.38666090  0.71765647     0.00600
Br636      Br  0.23420112  0.50822398  0.75107493    -0.03800
C637        C  0.16333819  0.34998104  0.67728507    -0.11200
C638        C  0.18027907  0.33491227  0.66780080     0.04300
C639        C  0.17981153  0.30547418  0.66776370    -0.11800
C640        C  0.16242463  0.29050071  0.67681593     0.19100
C641        C  0.14468137  0.30536141  0.68581010    -0.08800
C642        C  0.14530938  0.33469264  0.68601651    -0.01800
H643        H  0.19340155  0.29413917  0.66074029     0.05600
C644        C  0.16388597  0.25945005  0.67718063     0.21100
H645        H  0.13171389  0.34554533  0.69321150     0.10800
C646        C  0.17462147  0.24622021  0.68894275    -0.15100
C647        C  0.17582193  0.21691775  0.68986945     0.03800
C648        C  0.16613692  0.20024633  0.67880487    -0.10500
C649        C  0.15613141  0.21363003  0.66689627    -0.00500
C650        C  0.15488699  0.24291267  0.66602777    -0.05600
H651        H  0.18212565  0.25883336  0.69746440     0.06800
H652        H  0.14857561  0.20126005  0.65830845     0.10200
Br653      Br  0.11884994  0.28651069  0.69787112    -0.05300
Br654      Br  0.20471195  0.35253559  0.65463356    -0.02300
Br655      Br  0.19216169  0.20133036  0.70623605     0.00600
Br656      Br  0.13955091  0.25923569  0.64964487    -0.03800
C657        C  0.56193975  0.08970059  0.42706569    -0.11200
C658        C  0.54414388  0.08056869  0.43785275     0.04300
C659        C  0.51496640  0.08181515  0.43624198    -0.11800
C660        C  0.50307033  0.09212365  0.42409179     0.19100
C661        C  0.52059941  0.10065901  0.41324218    -0.08800
C662        C  0.54977480  0.09922130  0.41474004    -0.01800
H663        H  0.50144230  0.07512609  0.44459183     0.05600
C664        C  0.47233534  0.09526137  0.42328984     0.21100
H665        H  0.56298018  0.10636675  0.40635048     0.10800
C666        C  0.46031427  0.12114375  0.42675742    -0.15100
C667        C  0.43112203  0.12454491  0.42702724     0.03800
C668        C  0.41344626  0.10153679  0.42381637    -0.10500
C669        C  0.42574895  0.07592454  0.41987223    -0.00500
C670        C  0.45492070  0.07263106  0.41966506    -0.05600
H671        H  0.47376265  0.13870718  0.42941565     0.06800
H672        H  0.41264251  0.05804631  0.41735111     0.10200
Br673      Br  0.50550081  0.11493676  0.39635580    -0.05300
Br674      Br  0.55792109  0.06569763  0.45493420    -0.02300
Br675      Br  0.41717988  0.16132187  0.43145929     0.00600
Br676      Br  0.47005838  0.03675441  0.41463884    -0.03800
C677        C  0.20321114  0.05894987  0.64840505    -0.11200
C678        C  0.23018805  0.06622433  0.64338781     0.04300
C679        C  0.24358578  0.04886434  0.63382946    -0.11800
C680        C  0.23079781  0.02412663  0.62923420     0.19100
C681        C  0.20424818  0.01648096  0.63435786    -0.08800
C682        C  0.19061884  0.03390469  0.64383047    -0.01800
H683        H  0.26429008  0.05448813  0.63007435     0.05600
C684        C  0.24594041  0.00642032  0.61927232     0.21100
H685        H  0.17013411  0.02775325  0.64768345     0.10800
C686        C  0.26741903  0.98880952  0.62396352    -0.15100
C687        C  0.28357440  0.97312649  0.61471928     0.03800
C688        C  0.27826313  0.97506098  0.60043426    -0.10500
C689        C  0.25618234  0.99229489  0.59584266    -0.00500
C690        C  0.24024226  0.00808934  0.60512827    -0.05600
H691        H  0.27178311  0.98747745  0.63488669     0.06800
H692        H  0.25187782  0.99425280  0.58494728     0.10200
Br693      Br  0.18636152  0.98206973  0.62899715    -0.05300
Br694      Br  0.25108111  0.09812279  0.64986351    -0.02300
Br695      Br  0.31183547  0.94903527  0.62242319     0.00600
Br696      Br  0.21184193  0.03276776  0.59806979    -0.03800
C697        C  0.32102172  0.98493444  0.53232357    -0.11200
C698        C  0.33282799  0.01203831  0.53056074     0.04300
C699        C  0.33133890  0.02525931  0.51773522    -0.11800
C700        C  0.31772550  0.01240922  0.50662639     0.19100
C701        C  0.30506646  0.98601673  0.50844802    -0.08800
C702        C  0.30687920  0.97248435  0.52116133    -0.01800
H703        H  0.34082578  0.04576413  0.51640366     0.05600
C704        C  0.31723447  0.02679829  0.49318316     0.21100
H705        H  0.29732271  0.95196068  0.52223902     0.10800
C706        C  0.33379602  0.01639758  0.48241191    -0.15100
C707        C  0.33469821  0.03000827  0.46966649     0.03800
C708        C  0.31851764  0.05463775  0.46751701    -0.10500
C709        C  0.30180803  0.06478287  0.47840207    -0.00500
C710        C  0.30114955  0.05115281  0.49112896    -0.05600
H711        H  0.34642078  0.99776806  0.48401603     0.06800
H712        H  0.28921721  0.08350897  0.47707155     0.10200
Br713      Br  0.28446251  0.96800412  0.49396535    -0.05300
Br714      Br  0.35063691  0.03289898  0.54506238    -0.02300
Br715      Br  0.35937664  0.01397781  0.45609407     0.00600
Br716      Br  0.27765592  0.06625389  0.50538187    -0.03800
C717        C  0.71678120  0.97106656  0.60248271    -0.11200
C718        C  0.74212288  0.98482203  0.59887329     0.04300
C719        C  0.75742357  0.99915476  0.60893356    -0.11800
C720        C  0.74799242  0.00004112  0.62256005     0.19100
C721        C  0.72335779  0.98567795  0.62630096    -0.08800
C722        C  0.70791536  0.97140956  0.61628951    -0.01800
H723        H  0.77632117  0.01040081  0.60604757     0.05600
C724        C  0.76289445  0.01788516  0.63250571     0.21100
H725        H  0.68877509  0.96074332  0.61930759     0.10800
C726        C  0.75184982  0.04440921  0.63555722    -0.15100
C727        C  0.76504240  0.06200113  0.64507108     0.03800
C728        C  0.78986011  0.05296717  0.65171691    -0.10500
C729        C  0.80088984  0.02632452  0.64852340    -0.00500
C730        C  0.78766824  0.00887238  0.63894906    -0.05600
H731        H  0.73269979  0.05128680  0.63061486     0.06800
H732        H  0.81988992  0.01902794  0.65347435     0.10200
Br733      Br  0.71006403  0.98526550  0.64494869    -0.05300
Br734      Br  0.75608131  0.98701830  0.58035592    -0.02300
Br735      Br  0.74684861  0.09706806  0.64903860     0.00600
Br736      Br  0.80364334  0.97268746  0.63518524    -0.03800
C737        C  0.67129151  0.97361461  0.53235568    -0.11200
C738        C  0.68306300  0.00074695  0.53104618     0.04300
C739        C  0.68261046  0.01439895  0.51831613    -0.11800
C740        C  0.67031788  0.00168013  0.50679945     0.19100
C741        C  0.65903587  0.97447989  0.50798599    -0.08800
C742        C  0.65989328  0.96053810  0.52064896    -0.01800
H743        H  0.69151394  0.03524279  0.51742605     0.05600
C744        C  0.66861420  0.01760031  0.49378880     0.21100
H745        H  0.65056066  0.93987062  0.52146352     0.10800
C746        C  0.68565138  0.00991420  0.48261994    -0.15100
C747        C  0.68456327  0.02483563  0.47020919     0.03800
C748        C  0.66621080  0.04802584  0.46891300    -0.10500
C749        C  0.64945727  0.05575787  0.48020726    -0.00500
C750        C  0.65040555  0.04069739  0.49251343    -0.05600
H751        H  0.69993096  0.99233933  0.48360179     0.06800
H752        H  0.63502177  0.07323833  0.47937493     0.10200
Br753      Br  0.64041995  0.95649216  0.49286113    -0.05300
Br754      Br  0.70069223  0.02015252  0.54606280    -0.02300
Br755      Br  0.70963960  0.01332752  0.45577762     0.00600
Br756      Br  0.62554551  0.05174361  0.50710685    -0.03800
C757        C  0.42269831  0.93508357  0.57348062    -0.11200
C758        C  0.44072151  0.93175058  0.56200933     0.04300
C759        C  0.46975491  0.93039917  0.56395688    -0.11800
C760        C  0.48138393  0.93193207  0.57714990     0.19100
C761        C  0.46362548  0.93493760  0.58861279    -0.08800
C762        C  0.43453573  0.93678813  0.58671274    -0.01800
H763        H  0.48343467  0.92830703  0.55510294     0.05600
C764        C  0.51222683  0.93148733  0.57848062     0.21100
H765        H  0.42109634  0.93888241  0.59565645     0.10800
C766        C  0.52648943  0.95671369  0.58095683    -0.15100
C767        C  0.55585588  0.95799899  0.58034868     0.03800
C768        C  0.57145212  0.93348210  0.57721188    -0.10500
C769        C  0.55691283  0.90806609  0.57519604    -0.00500
C770        C  0.52762304  0.90693363  0.57580690    -0.05600
H771        H  0.51460997  0.97575261  0.58286905     0.06800
H772        H  0.56833896  0.88890386  0.57297462     0.10200
Br773      Br  0.47813372  0.93521964  0.60700683    -0.05300
Br774      Br  0.42763126  0.92993442  0.54334174    -0.02300
Br775      Br  0.57261621  0.99431130  0.58296421     0.00600
Br776      Br  0.50947471  0.87145044  0.57283170    -0.03800
C777        C  0.31546824  0.34241577  0.43257882    -0.11200
C778        C  0.29860200  0.32880315  0.42262319     0.04300
C779        C  0.29658789  0.29950765  0.42258312    -0.11800
C780        C  0.31117101  0.28334003  0.43224521     0.19100
C781        C  0.32776347  0.29675786  0.44224367    -0.08800
C782        C  0.32944243  0.32604417  0.44247608    -0.01800
H783        H  0.28387687  0.28919681  0.41482681     0.05600
C784        C  0.31033956  0.25248698  0.43110806     0.21100
H785        H  0.34285001  0.33596545  0.45005865     0.10800
C786        C  0.32441582  0.23965391  0.42013848    -0.15100
C787        C  0.32514085  0.21044513  0.41885648     0.03800
C788        C  0.31154267  0.19343621  0.42881223    -0.10500
C789        C  0.29685441  0.20657062  0.43962414    -0.00500
C790        C  0.29596526  0.23582511  0.44074604    -0.05600
H791        H  0.33531983  0.25249841  0.41264051     0.06800
H792        H  0.28600954  0.19407618  0.44727619     0.10200
Br793      Br  0.35026784  0.27593568  0.45505801    -0.05300
Br794      Br  0.27751355  0.34859253  0.40887724    -0.02300
Br795      Br  0.34619066  0.19587215  0.40354104     0.00600
Br796      Br  0.27439327  0.25220159  0.45538315    -0.03800
C797        C  0.66804365  0.18606386  0.43069766    -0.11200
C798        C  0.64699036  0.20475873  0.42605199     0.04300
C799        C  0.65217191  0.23361648  0.42593155    -0.11800
C800        C  0.67777218  0.24448625  0.43061963     0.19100
C801        C  0.69839535  0.22611096  0.43572554    -0.08800
C802        C  0.69350986  0.19712972  0.43564822    -0.01800
H803        H  0.63585986  0.24779956  0.42242718     0.05600
C804        C  0.68155531  0.27522151  0.43077809     0.21100
H805        H  0.70976505  0.18319833  0.43941341     0.10800
C806        C  0.67993896  0.28945280  0.44333678    -0.15100
C807        C  0.67975768  0.31877519  0.44383774     0.03800
C808        C  0.68117344  0.33449562  0.43146636    -0.10500
C809        C  0.68386857  0.31996625  0.41891468    -0.00500
C810        C  0.68399451  0.29061806  0.41850669    -0.05600
H811        H  0.67786413  0.27760407  0.45280163     0.06800
H812        H  0.68523861  0.33140686  0.40930735     0.10200
Br813      Br  0.73353136  0.23964752  0.44276307    -0.05300
Br814      Br  0.60988892  0.19285722  0.42082338    -0.02300
Br815      Br  0.67620705  0.33521389  0.46182450     0.00600
Br816      Br  0.68718272  0.27232258  0.40097881    -0.03800
C817        C  0.42809945  0.42718881  0.42543291    -0.11200
C818        C  0.44407802  0.40344477  0.42944445     0.04300
C819        C  0.47339326  0.40418286  0.42854713    -0.11800
C820        C  0.48738498  0.42807714  0.42371407     0.19100
C821        C  0.47171505  0.45133246  0.41924913    -0.08800
C822        C  0.44233620  0.45075927  0.42010590    -0.01800
H823        H  0.48545739  0.38615773  0.43189466     0.05600
C824        C  0.51836084  0.42880250  0.42427339     0.21100
H825        H  0.43068382  0.46915192  0.41693434     0.10800
C826        C  0.53415010  0.42525953  0.41222126    -0.15100
C827        C  0.56360784  0.42462183  0.41264100     0.03800
C828        C  0.57768105  0.42758853  0.42540789    -0.10500
C829        C  0.56150799  0.43144951  0.43739069    -0.00500
C830        C  0.53224066  0.43201293  0.43690824    -0.05600
H831        H  0.52345908  0.42264438  0.40246941     0.06800
H832        H  0.57160106  0.43398026  0.44729264     0.10200
Br833      Br  0.48969377  0.48474085  0.41257209    -0.05300
Br834      Br  0.42788088  0.36910305  0.43618738    -0.02300
Br835      Br  0.58268879  0.41901663  0.39543016     0.00600
Br836      Br  0.51207585  0.43743380  0.45381730    -0.03800
C837        C  0.28556559  0.57188670  0.60271108    -0.11200
C838        C  0.29641222  0.56549839  0.61590453     0.04300
C839        C  0.27912233  0.55268101  0.62571510    -0.11800
C840        C  0.25109408  0.54610203  0.62271988     0.19100
C841        C  0.23979989  0.55383636  0.60990880    -0.08800
C842        C  0.25700268  0.56652776  0.60004112    -0.01800
H843        H  0.28780264  0.54711944  0.63564252     0.05600
C844        C  0.23481358  0.52938720  0.63275935     0.21100
H845        H  0.24805366  0.57163651  0.59011512     0.10800
C846        C  0.22638052  0.54157489  0.64521989    -0.15100
C847        C  0.21275885  0.52559474  0.65534792     0.03800
C848        C  0.20744934  0.49667048  0.65305230    -0.10500
C849        C  0.21600745  0.48470333  0.64049157    -0.00500
C850        C  0.22963477  0.50070393  0.63045291    -0.05600
H851        H  0.23081585  0.56352999  0.64714853     0.06800
H852        H  0.21236061  0.46264753  0.63847236     0.10200
Br853      Br  0.20112506  0.54721883  0.60536974    -0.05300
Br854      Br  0.33431279  0.57373331  0.62145672    -0.02300
Br855      Br  0.20357529  0.54451770  0.67221982     0.00600
Br856      Br  0.24219933  0.48207097  0.61403879    -0.03800
C857        C  0.32576379  0.69555165  0.57085992    -0.11200
C858        C  0.34955753  0.71324064  0.57162734     0.04300
C859        C  0.34610106  0.74232894  0.57142847    -0.11800
C860        C  0.31931413  0.75424546  0.57027812     0.19100
C861        C  0.29560703  0.73676482  0.56920556    -0.08800
C862        C  0.29893192  0.70758029  0.56954890    -0.01800
H863        H  0.36444810  0.75579098  0.57198268     0.05600
C864        C  0.31682153  0.78504481  0.57020164     0.21100
H865        H  0.28051707  0.69426199  0.56882867     0.10800
C866        C  0.31234781  0.79908612  0.55775482    -0.15100
C867        C  0.31229728  0.82845738  0.55718281     0.03800
C868        C  0.31730968  0.84425969  0.56930836    -0.10500
C869        C  0.32088847  0.82982037  0.58181772    -0.00500
C870        C  0.32052289  0.80054925  0.58233215    -0.05600
H871        H  0.30936089  0.78708271  0.54839570     0.06800
H872        H  0.32433714  0.84128822  0.59128889     0.10200
Br873      Br  0.25848547  0.75199588  0.56735933    -0.05300
Br874      Br  0.38743508  0.69917463  0.57174779    -0.02300
Br875      Br  0.30590904  0.84491209  0.53942166     0.00600
Br876      Br  0.32500368  0.78247724  0.59983282    -0.03800
C877        C  0.32531330  0.55756088  0.53171215    -0.11200
C878        C  0.30724604  0.56610432  0.52094346     0.04300
C879        C  0.30590257  0.55031746  0.50880855    -0.11800
C880        C  0.32234932  0.52616268  0.50711562     0.19100
C881        C  0.34038389  0.51766417  0.51777304    -0.08800
C882        C  0.34145337  0.53308234  0.52998284    -0.01800
H883        H  0.29215328  0.55707128  0.50056536     0.05600
C884        C  0.32202052  0.51127171  0.49379958     0.21100
H885        H  0.35575678  0.52635392  0.53799703     0.10800
C886        C  0.33542188  0.52368183  0.48250782    -0.15100
C887        C  0.33742065  0.50959643  0.46992476     0.03800
C888        C  0.32566874  0.48242521  0.46848645    -0.10500
C889        C  0.31115210  0.47063291  0.47970619    -0.00500
C890        C  0.30936136  0.48475491  0.49229342    -0.05600
H891        H  0.34485375  0.54428303  0.48358042     0.06800
H892        H  0.30177181  0.44997702  0.47883145     0.10200
Br893      Br  0.36535331  0.48627429  0.51576139    -0.05300
Br894      Br  0.28343083  0.59858151  0.52209653    -0.02300
Br895      Br  0.35598907  0.52921210  0.45522684     0.00600
Br896      Br  0.28968393  0.46694599  0.50716327    -0.03800
C897        C  0.72082809  0.55904227  0.59481717    -0.11200
C898        C  0.75049464  0.55692307  0.59386461     0.04300
C899        C  0.76542478  0.54224931  0.60397587    -0.11800
C900        C  0.75140541  0.52931051  0.61496094     0.19100
C901        C  0.72196732  0.53066761  0.61571351    -0.08800
C902        C  0.70700045  0.54547706  0.60576220    -0.01800
H903        H  0.78811790  0.54096957  0.60330538     0.05600
C904        C  0.76772572  0.51443224  0.62558424     0.21100
H905        H  0.68431745  0.54629536  0.60664124     0.10800
C906        C  0.77140314  0.52693531  0.63850830    -0.15100
C907        C  0.78577516  0.51290813  0.64902366     0.03800
C908        C  0.79676568  0.48570700  0.64661990    -0.10500
C909        C  0.79312423  0.47347803  0.63356353    -0.00500
C910        C  0.77882830  0.48759697  0.62310792    -0.05600
H911        H  0.76266570  0.54754758  0.64046977     0.06800
H912        H  0.80130947  0.45271283  0.63145923     0.10200
Br913      Br  0.70120666  0.51203487  0.62997239    -0.05300
Br914      Br  0.77230329  0.57341970  0.57929738    -0.02300
Br915      Br  0.78798060  0.53163638  0.66648965     0.00600
Br916      Br  0.77397845  0.46898784  0.60576868    -0.03800
C917        C  0.68701058  0.69490473  0.57018778    -0.11200
C918        C  0.69756963  0.70712007  0.58242630     0.04300
C919        C  0.69910527  0.73633967  0.58363020    -0.11800
C920        C  0.69016162  0.75373188  0.57290044     0.19100
C921        C  0.68052257  0.74171410  0.56056937    -0.08800
C922        C  0.67920908  0.71256425  0.55926169    -0.01800
H923        H  0.70680093  0.74560209  0.59309389     0.05600
C924        C  0.68966044  0.78437101  0.57488244     0.21100
H925        H  0.67094823  0.70373776  0.54982133     0.10800
C926        C  0.70844674  0.80118109  0.56745677    -0.15100
C927        C  0.70612626  0.83042585  0.56767301     0.03800
C928        C  0.68466068  0.84328227  0.57556400    -0.10500
C929        C  0.66703191  0.82625898  0.58367442    -0.00500
C930        C  0.66925147  0.79704066  0.58330258    -0.05600
H931        H  0.72441131  0.79141176  0.56109330     0.06800
H932        H  0.65046762  0.83557644  0.58982215     0.10200
Br933      Br  0.66707544  0.76428658  0.54559687    -0.05300
Br934      Br  0.71051966  0.68559134  0.59787223    -0.02300
Br935      Br  0.73286163  0.85105416  0.55682585     0.00600
Br936      Br  0.64244559  0.77525767  0.59354121    -0.03800
C937        C  0.68099834  0.55429693  0.52971894    -0.11200
C938        C  0.70339483  0.55756337  0.52027115     0.04300
C939        C  0.70495812  0.54009053  0.50871425    -0.11800
C940        C  0.68454012  0.51940513  0.50633706     0.19100
C941        C  0.66263847  0.51568802  0.51587898    -0.08800
C942        C  0.66104884  0.53300029  0.52742264    -0.01800
H943        H  0.72195770  0.54291434  0.50140389     0.05600
C944        C  0.68514069  0.50330410  0.49337927     0.21100
H945        H  0.64366190  0.53010656  0.53450089     0.10800
C946        C  0.69074722  0.47439544  0.49361318    -0.15100
C947        C  0.68908699  0.45832685  0.48157254     0.03800
C948        C  0.68236550  0.47148926  0.46896075    -0.10500
C949        C  0.67725485  0.50053558  0.46880533    -0.00500
C950        C  0.67836843  0.51636181  0.48085818    -0.05600
H951        H  0.69546248  0.46416119  0.50329343     0.06800
H952        H  0.67174866  0.51097622  0.45928354     0.10200
Br953      Br  0.63353841  0.48825987  0.51325290    -0.05300
Br954      Br  0.73290784  0.58468197  0.52259563    -0.02300
Br955      Br  0.69336076  0.41838024  0.48339092     0.00600
Br956      Br  0.66842021  0.55537097  0.47986395    -0.03800
C957        C  0.57768699  0.60286565  0.57051991    -0.11200
C958        C  0.56037334  0.59568419  0.55926526     0.04300
C959        C  0.53120163  0.59652116  0.56071291    -0.11800
C960        C  0.51884780  0.60401081  0.57326207     0.19100
C961        C  0.53595455  0.61007265  0.58465382    -0.08800
C962        C  0.56520378  0.60944508  0.58322879    -0.01800
H963        H  0.51801065  0.59114650  0.55201676     0.05600
C964        C  0.48800000  0.60500336  0.57414410     0.21100
H965        H  0.57820171  0.61474722  0.59199349     0.10800
C966        C  0.47352829  0.58245975  0.58009638    -0.15100
C967        C  0.44414443  0.58130992  0.57978976     0.03800
C968        C  0.42884378  0.60312326  0.57335051    -0.10500
C969        C  0.44359534  0.62600883  0.56772777    -0.00500
C970        C  0.47287984  0.62708035  0.56809277    -0.05600
H971        H  0.48520869  0.56530928  0.58465136     0.06800
H972        H  0.43232403  0.64317595  0.56294406     0.10200
Br973      Br  0.52022699  0.62015221  0.60214405    -0.05300
Br974      Br  0.57504432  0.58278649  0.54195364    -0.02300
Br975      Br  0.42680695  0.54847854  0.58751734     0.00600
Br976      Br  0.49137927  0.65901585  0.56013263    -0.03800
C977        C  0.79921926  0.54284651  0.35103266    -0.11200
C978        C  0.79084611  0.51463913  0.34894034     0.04300
C979        C  0.77649888  0.50036898  0.35936066    -0.11800
C980        C  0.76964856  0.51388457  0.37170350     0.19100
C981        C  0.77739446  0.54200359  0.37373070    -0.08800
C982        C  0.79232368  0.55614272  0.36351459    -0.01800
H983        H  0.76993397  0.47885188  0.35769976     0.05600
C984        C  0.75307223  0.49877092  0.38206947     0.21100
H985        H  0.79812981  0.57782532  0.36528750     0.10800
C986        C  0.76620864  0.48912081  0.39404872    -0.15100
C987        C  0.75083147  0.47491506  0.40414976     0.03800
C988        C  0.72176690  0.47005375  0.40217406    -0.10500
C989        C  0.70879718  0.48009118  0.39016684    -0.00500
C990        C  0.72417011  0.49436820  0.38017988    -0.05600
H991        H  0.78843636  0.49290431  0.39557838     0.06800
H992        H  0.68654882  0.47675376  0.38847056     0.10200
Br993      Br  0.76643321  0.56239964  0.38989979    -0.05300
Br994      Br  0.79601811  0.49485076  0.33189822    -0.02300
Br995      Br  0.77062818  0.46429510  0.42055324     0.00600
Br996      Br  0.70463696  0.50826277  0.36432566    -0.03800
C997        C  0.70233089  0.05484612  0.39907806    -0.11200
C998        C  0.73042837  0.04595104  0.40093976     0.04300
C999        C  0.74434429  0.03172822  0.39032793    -0.11800
C1000       C  0.73066377  0.02588264  0.37790573     0.19100
C1001       C  0.70273758  0.03459791  0.37601803    -0.08800
C1002       C  0.68886166  0.04907577  0.38651800    -0.01800
H1003       H  0.76561857  0.02447276  0.39190437     0.05600
C1004       C  0.74512964  0.00869201  0.36748165     0.21100
H1005       H  0.66734047  0.05556149  0.38489294     0.10800
C1006       C  0.74223516  0.97944671  0.36811156    -0.15100
C1007       C  0.75577590  0.96217437  0.35851702     0.03800
C1008       C  0.77255486  0.97424656  0.34801460    -0.10500
C1009       C  0.77519474  0.00370641  0.34748152    -0.00500
C1010       C  0.76174989  0.02086098  0.35714414    -0.05600
H1011       H  0.72965746  0.97027268  0.37592530     0.06800
H1012       H  0.78788624  0.01346064  0.33964537     0.10200
Br1013     Br  0.68247123  0.02629524  0.35946039    -0.05300
Br1014     Br  0.75026054  0.05011658  0.41800809    -0.02300
Br1015     Br  0.74951685  0.92250190  0.36051651     0.00600
Br1016     Br  0.76677941  0.06074193  0.35591758    -0.03800
C1017       C  0.82611675  0.83319146  0.32162620    -0.11200
C1018       C  0.85264780  0.82021825  0.32011683     0.04300
C1019       C  0.85483073  0.79096412  0.32077518    -0.11800
C1020       C  0.83099928  0.77426484  0.32303803     0.19100
C1021       C  0.80474966  0.78719241  0.32514606    -0.08800
C1022       C  0.80247317  0.81644484  0.32443538    -0.01800
H1023       H  0.87519819  0.78114434  0.31946219     0.05600
C1024       C  0.83381132  0.74338728  0.32282761     0.21100
H1025       H  0.78202612  0.82606482  0.32572921     0.10800
C1026       C  0.83091718  0.72818588  0.33508087    -0.15100
C1027       C  0.83277771  0.69885338  0.33514224     0.03800
C1028       C  0.83789990  0.68424130  0.32269824    -0.10500
C1029       C  0.84122615  0.69972527  0.31049351    -0.00500
C1030       C  0.83908625  0.72896925  0.31047004    -0.05600
H1031       H  0.82706959  0.73924791  0.34464434     0.06800
H1032       H  0.84493044  0.68902634  0.30081907     0.10200
Br1033     Br  0.77129176  0.76566023  0.32843700    -0.05300
Br1034     Br  0.88684858  0.84125394  0.31792384    -0.02300
Br1035     Br  0.82888868  0.68056167  0.35265542     0.00600
Br1036     Br  0.84222015  0.74823521  0.29320003    -0.03800
C1037       C  0.70147651  0.92867000  0.21389295    -0.11200
C1038       C  0.73078404  0.92425691  0.21520950     0.04300
C1039       C  0.74356950  0.92697672  0.22809485    -0.11800
C1040       C  0.72770433  0.93385473  0.23975733     0.19100
C1041       C  0.69884034  0.93936992  0.23840948    -0.08800
C1042       C  0.68602874  0.93698012  0.22555083    -0.01800
H1043       H  0.76588009  0.92296988  0.22910380     0.05600
C1044       C  0.74136577  0.93336111  0.25333921     0.21100
H1045       H  0.66360359  0.94055493  0.22481355     0.10800
C1046       C  0.75734732  0.95643932  0.25763130    -0.15100
C1047       C  0.77166402  0.95591548  0.27019680     0.03800
C1048       C  0.76988797  0.93189177  0.27872278    -0.10500
C1049       C  0.75342474  0.90900779  0.27441182    -0.00500
C1050       C  0.73949671  0.90948772  0.26178112    -0.05600
H1051       H  0.75882942  0.97484932  0.25112159     0.06800
H1052       H  0.75200546  0.89028645  0.28070462     0.10200
Br1053     Br  0.67589318  0.94906653  0.25393780    -0.05300
Br1054     Br  0.75480036  0.91477750  0.20000813    -0.02300
Br1055     Br  0.79252380  0.98896322  0.27513743     0.00600
Br1056     Br  0.71916203  0.87662039  0.25614168    -0.03800
C1057       C  0.71293266  0.56797564  0.22098185    -0.11200
C1058       C  0.74245624  0.57150383  0.22146653     0.04300
C1059       C  0.75638628  0.57108507  0.23411550    -0.11800
C1060       C  0.74158333  0.56712718  0.24643027     0.19100
C1061       C  0.71228140  0.56305550  0.24599518    -0.08800
C1062       C  0.69825576  0.56330093  0.23334531    -0.01800
H1063       H  0.77892931  0.57435688  0.23437535     0.05600
C1064       C  0.75691291  0.56943867  0.25961266     0.21100
H1065       H  0.67564877  0.56050746  0.23322786     0.10800
C1066       C  0.75096408  0.59209727  0.26831152    -0.15100
C1067       C  0.76611581  0.59636889  0.28043039     0.03800
C1068       C  0.78850983  0.57801820  0.28387920    -0.10500
C1069       C  0.79404532  0.55498766  0.27520719    -0.00500
C1070       C  0.77834565  0.55050022  0.26323873    -0.05600
H1071       H  0.73454768  0.60679938  0.26555177     0.06800
H1072       H  0.81064718  0.54032476  0.27772323     0.10200
Br1073     Br  0.69061103  0.55704560  0.26240863    -0.05300
Br1074     Br  0.76536959  0.57629530  0.20534714    -0.02300
Br1075     Br  0.75481964  0.62807379  0.29137866     0.00600
Br1076     Br  0.78635327  0.51782466  0.25236563    -0.03800
C1077       C  0.66464700  0.66797508  0.17759802    -0.11200
C1078       C  0.68928073  0.68386217  0.17493886     0.04300
C1079       C  0.68761818  0.71312450  0.17359558    -0.11800
C1080       C  0.66195953  0.72723670  0.17517712     0.19100
C1081       C  0.63750568  0.71159268  0.17795781    -0.08800
C1082       C  0.63895150  0.68232083  0.17905401    -0.01800
H1083       H  0.70660155  0.72506265  0.17165108     0.05600
C1084       C  0.66122484  0.75834577  0.17462760     0.21100
H1085       H  0.61983211  0.67077348  0.18121206     0.10800
C1086       C  0.64738699  0.77190740  0.16374956    -0.15100
C1087       C  0.64503397  0.80127665  0.16338986     0.03800
C1088       C  0.65636130  0.81756379  0.17423080    -0.10500
C1089       C  0.67051993  0.80380586  0.18496152    -0.00500
C1090       C  0.67335554  0.77463450  0.18513574    -0.05600
H1091       H  0.63812880  0.75952157  0.15556957     0.06800
H1092       H  0.67976351  0.81584430  0.19326918     0.10200
Br1093     Br  0.60192006  0.72944655  0.18114062    -0.05300
Br1094     Br  0.72621788  0.66766438  0.17400555    -0.02300
Br1095     Br  0.62510072  0.81739894  0.14815508     0.00600
Br1096     Br  0.69360830  0.75812569  0.20014162    -0.03800
C1097       C  0.28695640  0.47308783  0.40001784    -0.11200
C1098       C  0.25743096  0.47626239  0.40101600     0.04300
C1099       C  0.24316127  0.49285457  0.39143100    -0.11800
C1100       C  0.25771466  0.50629397  0.38078091     0.19100
C1101       C  0.28693904  0.50279015  0.37958375    -0.08800
C1102       C  0.30127244  0.48609510  0.38907218    -0.01800
H1103       H  0.22060476  0.49540818  0.39231179     0.05600
C1104       C  0.24222591  0.52465544  0.37125738     0.21100
H1105       H  0.32387294  0.48412570  0.38814674     0.10800
C1106       C  0.23447794  0.55158098  0.37561714    -0.15100
C1107       C  0.22059944  0.57004720  0.36673817     0.03800
C1108       C  0.21413281  0.56141120  0.35314964    -0.10500
C1109       C  0.22169640  0.53412334  0.34896910    -0.00500
C1110       C  0.23556070  0.51583209  0.35787981    -0.05600
H1111       H  0.23951661  0.55833536  0.38596206     0.06800
H1112       H  0.21691530  0.52686693  0.33867670     0.10200
Br1113     Br  0.30825249  0.52167924  0.36559002    -0.05300
Br1114     Br  0.23503973  0.45810448  0.41487019    -0.02300
Br1115     Br  0.21117943  0.60629489  0.37411827     0.00600
Br1116     Br  0.24475505  0.47889560  0.35139819    -0.03800
C1117       C  0.93174812  0.58132505  0.32318053    -0.11200
C1118       C  0.94812970  0.56591489  0.31367357     0.04300
C1119       C  0.97749502  0.56756119  0.31420184    -0.11800
C1120       C  0.99091312  0.58392696  0.32421807     0.19100
C1121       C  0.97472556  0.59809560  0.33412486    -0.08800
C1122       C  0.94542932  0.59664748  0.33357942    -0.01800
H1123       H  0.98995096  0.55632240  0.30665336     0.05600
C1124       C  0.02162959  0.58783295  0.32354414     0.21100
H1125       H  0.93331941  0.60853706  0.34101728     0.10800
C1126       C  0.03258878  0.60655981  0.31383374    -0.15100
C1127       C  0.06141191  0.61220853  0.31321277     0.03800
C1128       C  0.08006274  0.59836044  0.32232533    -0.10500
C1129       C  0.06879127  0.57933193  0.33198301    -0.00500
C1130       C  0.03986363  0.57419065  0.33270168    -0.05600
H1131       H  0.01848274  0.61730252  0.30685931     0.06800
H1132       H  0.08244340  0.56862029  0.33916691     0.10200
Br1133     Br  0.99173309  0.62097635  0.34808838    -0.05300
Br1134     Br  0.93192622  0.54169546  0.30001471    -0.02300
Br1135     Br  0.07307052  0.63939744  0.29976266     0.00600
Br1136     Br  0.02602579  0.54870464  0.34642475    -0.03800
C1137       C  0.26414923  0.06561576  0.39965927    -0.11200
C1138       C  0.23495006  0.07144044  0.39927306     0.04300
C1139       C  0.21777972  0.05763432  0.38971760    -0.11800
C1140       C  0.22921202  0.03829649  0.38042429     0.19100
C1141       C  0.25820708  0.03285892  0.38057928    -0.08800
C1142       C  0.27537171  0.04635749  0.39015172    -0.01800
H1143       H  0.19547271  0.06215707  0.38944626     0.05600
C1144       C  0.21093884  0.02407003  0.37040244     0.21100
H1145       H  0.29763123  0.04158858  0.39018515     0.10800
C1146       C  0.20744509  0.03592447  0.35735086    -0.15100
C1147       C  0.19350198  0.02125298  0.34691806     0.03800
C1148       C  0.18264045  0.99407414  0.34957314    -0.10500
C1149       C  0.18533456  0.98287861  0.36292101    -0.00500
C1150       C  0.19939398  0.99758609  0.37325726    -0.05600
H1151       H  0.21653716  0.05627966  0.35513799     0.06800
H1152       H  0.17706954  0.96226170  0.36530222     0.10200
Br1153     Br  0.27517960  0.00724413  0.36777246    -0.05300
Br1154     Br  0.21724618  0.09897806  0.41082033    -0.02300
Br1155     Br  0.19179320  0.03929593  0.32927502     0.00600
Br1156     Br  0.20353722  0.98021179  0.39094582    -0.03800
C1157       C  0.90528089  0.94441026  0.31923127    -0.11200
C1158       C  0.91795999  0.96817967  0.31314288     0.04300
C1159       C  0.94730276  0.97069011  0.31302423    -0.11800
C1160       C  0.96425218  0.94969752  0.31877119     0.19100
C1161       C  0.95163053  0.92616603  0.32495564    -0.08800
C1162       C  0.92238868  0.92382395  0.32526955    -0.01800
H1163       H  0.95697024  0.98895737  0.30833667     0.05600
C1164       C  0.99510553  0.95227726  0.31806802     0.21100
H1165       H  0.91300441  0.90528905  0.32984650     0.10800
C1166       C  0.00973164  0.96330455  0.32932181    -0.15100
C1167       C  0.03916486  0.96398126  0.32944456     0.03800
C1168       C  0.05449014  0.95322554  0.31807900    -0.10500
C1169       C  0.03947451  0.94327635  0.30659740    -0.00500
C1170       C  0.01010858  0.94266451  0.30655025    -0.05600
H1171       H  0.99814935  0.97098713  0.33816078     0.06800
H1172       H  0.05056610  0.93501982  0.29774221     0.10200
Br1173     Br  0.97353142  0.89614902  0.33256667    -0.05300
Br1174     Br  0.89641087  0.99826706  0.30534710    -0.02300
Br1175     Br  0.05648594  0.97999269  0.34547453     0.00600
Br1176     Br  0.99131893  0.92730812  0.29080198    -0.03800
C1177       C  0.15269382  0.85067097  0.32839502    -0.11200
C1178       C  0.13291908  0.83029228  0.32404423     0.04300
C1179       C  0.13821379  0.80183616  0.32634848    -0.11800
C1180       C  0.16242561  0.79294347  0.33330184     0.19100
C1181       C  0.18167875  0.81315660  0.33806874    -0.08800
C1182       C  0.17675777  0.84164240  0.33556686    -0.01800
H1183       H  0.12338401  0.78640577  0.32252871     0.05600
C1184       C  0.16774810  0.76243187  0.33461311     0.21100
H1185       H  0.19210674  0.85677551  0.33915871     0.10800
C1186       C  0.19173771  0.75087393  0.32841112    -0.15100
C1187       C  0.19561066  0.72180341  0.32775592     0.03800
C1188       C  0.17451668  0.70362644  0.33288036    -0.10500
C1189       C  0.15140583  0.71533680  0.33985733    -0.00500
C1190       C  0.14799981  0.74440166  0.34082753    -0.05600
H1191       H  0.20723029  0.76454121  0.32371670     0.06800
H1192       H  0.13529799  0.70189519  0.34417739     0.10200
Br1193     Br  0.21472723  0.80304765  0.34824175    -0.05300
Br1194     Br  0.09814307  0.83912303  0.31497567    -0.02300
Br1195     Br  0.23037133  0.70878508  0.31994834     0.00600
Br1196     Br  0.11586871  0.75838484  0.35065040    -0.03800
C1197       C  0.57629922  0.55460433  0.18229893    -0.11200
C1198       C  0.56101355  0.54878182  0.17016332     0.04300
C1199       C  0.53160351  0.54879454  0.17047048    -0.11800
C1200       C  0.51700215  0.55430477  0.18270324     0.19100
C1201       C  0.53212647  0.55805145  0.19498650    -0.08800
C1202       C  0.56151748  0.55801847  0.19472312    -0.01800
H1203       H  0.52001723  0.54524347  0.16103721     0.05600
C1204       C  0.48617698  0.55790517  0.18225873     0.21100
H1205       H  0.57278611  0.56226990  0.20417294     0.10800
C1206       C  0.46860188  0.53703273  0.18766943    -0.15100
C1207       C  0.43931462  0.54015871  0.18750929     0.03800
C1208       C  0.42717307  0.56476530  0.18190103    -0.10500
C1209       C  0.44501604  0.58535763  0.17627636    -0.00500
C1210       C  0.47419756  0.58212826  0.17644233    -0.05600
H1211       H  0.47774899  0.51818454  0.19200389     0.06800
H1212       H  0.43630780  0.60444137  0.17197381     0.10200
Br1213     Br  0.51362874  0.56560638  0.21214099    -0.05300
Br1214     Br  0.57878276  0.54027115  0.15291183    -0.02300
Br1215     Br  0.41748169  0.50947018  0.19460485     0.00600
Br1216     Br  0.49693777  0.61189053  0.16908061    -0.03800
C1217       C  0.28902112  0.58027354  0.22182698    -0.11200
C1218       C  0.30022592  0.57111129  0.23455807     0.04300
C1219       C  0.28409294  0.57344695  0.24656570    -0.11800
C1220       C  0.25688931  0.58462055  0.24617398     0.19100
C1221       C  0.24537070  0.59296813  0.23354639    -0.08800
C1222       C  0.26132245  0.59069452  0.22153080    -0.01800
H1223       H  0.29297596  0.56695753  0.25631498     0.05600
C1224       C  0.24147583  0.58931471  0.25912927     0.21100
H1225       H  0.25212796  0.59777131  0.21195598     0.10800
C1226       C  0.24266115  0.61593146  0.26521728    -0.15100
C1227       C  0.22797184  0.62160475  0.27735401     0.03800
C1228       C  0.21187779  0.60026051  0.28367074    -0.10500
C1229       C  0.21031380  0.57371182  0.27738742    -0.00500
C1230       C  0.22506344  0.56811953  0.26521288    -0.05600
H1231       H  0.25483473  0.63245771  0.26039787     0.06800
H1232       H  0.19800391  0.55713935  0.28208019     0.10200
Br1233     Br  0.20809412  0.60815462  0.23235090    -0.05300
Br1234     Br  0.33712969  0.55521829  0.23651479    -0.02300
Br1235     Br  0.22923624  0.65940211  0.28422750     0.00600
Br1236     Br  0.22210527  0.53148869  0.25713710    -0.03800
C1237       C  0.41317243  0.92038835  0.18372280    -0.11200
C1238       C  0.43026459  0.89798150  0.18837241     0.04300
C1239       C  0.45954752  0.90045802  0.18780122    -0.11800
C1240       C  0.47234269  0.92483562  0.18267479     0.19100
C1241       C  0.45542743  0.94717897  0.17813345    -0.08800
C1242       C  0.42617777  0.94482816  0.17868379    -0.01800
H1243       H  0.47247859  0.88299673  0.19110985     0.05600
C1244       C  0.50331274  0.92589550  0.18154091     0.21100
H1245       H  0.41354448  0.96225874  0.17509336     0.10800
C1246       C  0.51576845  0.92633725  0.16847151    -0.15100
C1247       C  0.54501205  0.92570108  0.16691930     0.03800
C1248       C  0.56244482  0.92404239  0.17869953    -0.10500
C1249       C  0.54972487  0.92439727  0.19178681    -0.00500
C1250       C  0.52053297  0.92533998  0.19326774    -0.05600
H1251       H  0.50257775  0.92685780  0.15939433     0.06800
H1252       H  0.56248231  0.92349299  0.20099322     0.10200
Br1253     Br  0.47126014  0.98150599  0.17128952    -0.05300
Br1254     Br  0.41552957  0.86268435  0.19473759    -0.02300
Br1255     Br  0.55906968  0.92718599  0.14839488     0.00600
Br1256     Br  0.50519570  0.92622020  0.21153177    -0.03800
C1257       C  0.27277097  0.93401886  0.21745195    -0.11200
C1258       C  0.28242988  0.95118238  0.22837002     0.04300
C1259       C  0.26600983  0.95428566  0.24025886    -0.11800
C1260       C  0.24003964  0.94059419  0.24156852     0.19100
C1261       C  0.23004723  0.92414817  0.23060531    -0.08800
C1262       C  0.24625512  0.92112158  0.21869795    -0.01800
H1263       H  0.27374427  0.96710597  0.24865322     0.05600
C1264       C  0.22445022  0.94241697  0.25472836     0.21100
H1265       H  0.23833975  0.90781396  0.21053278     0.10800
C1266       C  0.20057306  0.95953145  0.25575541    -0.15100
C1267       C  0.18519625  0.96121965  0.26806395     0.03800
C1268       C  0.19366697  0.94532403  0.27967462    -0.10500
C1269       C  0.21787143  0.92843852  0.27852285    -0.00500
C1270       C  0.23317121  0.92695492  0.26625666    -0.05600
H1271       H  0.19379397  0.97152031  0.24689853     0.06800
H1272       H  0.22492720  0.91602959  0.28718234     0.10200
Br1273     Br  0.19516805  0.90403716  0.23171235    -0.05300
Br1274     Br  0.31742077  0.97130925  0.22783538    -0.02300
Br1275     Br  0.15267873  0.98510450  0.26796244     0.00600
Br1276     Br  0.26542633  0.90278543  0.26556586    -0.03800
C1277       C  0.33188576  0.67491066  0.17844747    -0.11200
C1278       C  0.34553181  0.69429831  0.18725514     0.04300
C1279       C  0.34059367  0.72301135  0.18570260    -0.11800
C1280       C  0.32254170  0.73297527  0.17547093     0.19100
C1281       C  0.30948477  0.71402765  0.16647885    -0.08800
C1282       C  0.31413214  0.68524950  0.16802376    -0.01800
H1283       H  0.35099044  0.73776421  0.19250363     0.05600
C1284       C  0.31822382  0.76339529  0.17428834     0.21100
H1285       H  0.30347384  0.67092680  0.16111981     0.10800
C1286       C  0.33467169  0.77862302  0.16497781    -0.15100
C1287       C  0.33400438  0.80796067  0.16485358     0.03800
C1288       C  0.31641671  0.82245762  0.17424802    -0.10500
C1289       C  0.29899305  0.80683235  0.18310406    -0.00500
C1290       C  0.29987051  0.77756729  0.18320990    -0.05600
H1291       H  0.34891468  0.76761717  0.15814521     0.06800
H1292       H  0.28514869  0.81738953  0.19028678     0.10200
Br1293     Br  0.28483753  0.72662610  0.15215821    -0.05300
Br1294     Br  0.37163015  0.68376692  0.20141675    -0.02300
Br1295     Br  0.35934831  0.82623923  0.15231896     0.00600
Br1296     Br  0.27638278  0.75779179  0.19601951    -0.03800
C1297       C  0.30152600  0.03864801  0.84147597    -0.11200
C1298       C  0.28359347  0.01679189  0.83703043     0.04300
C1299       C  0.26861478  0.00095661  0.84672646    -0.11800
C1300       C  0.27147674  0.00629348  0.86083344     0.19100
C1301       C  0.28950757  0.02786745  0.86527011    -0.08800
C1302       C  0.30400165  0.04409484  0.85561713    -0.01800
H1303       H  0.25472201  0.98438493  0.84326734     0.05600
C1304       C  0.25580810  0.98895779  0.87082722     0.21100
H1305       H  0.31780970  0.06062495  0.85921021     0.10800
C1306       C  0.26862718  0.96504646  0.87635932    -0.15100
C1307       C  0.25482712  0.94864382  0.88623269     0.03800
C1308       C  0.22770128  0.95639994  0.89087828    -0.10500
C1309       C  0.21466591  0.98000781  0.88495839    -0.00500
C1310       C  0.22846145  0.99618427  0.87500698    -0.05600
H1311       H  0.28950258  0.95913798  0.87296871     0.06800
H1312       H  0.19383662  0.98626933  0.88824957     0.10200
Br1313     Br  0.29552035  0.03544341  0.88441468    -0.05300
Br1314     Br  0.27764753  0.00835230  0.81793713    -0.02300
Br1315     Br  0.27379700  0.91531443  0.89232306     0.00600
Br1316     Br  0.20940048  0.02819483  0.86751487    -0.03800
C1317       C  0.79782567  0.94858014  0.90036139    -0.11200
C1318       C  0.76934174  0.94180372  0.89761942     0.04300
C1319       C  0.75385207  0.95811029  0.88834248    -0.11800
C1320       C  0.76600339  0.98126363  0.88173526     0.19100
C1321       C  0.79421697  0.98810117  0.88441346    -0.08800
C1322       C  0.80986123  0.97176087  0.89355213    -0.01800
H1323       H  0.73206380  0.95288645  0.88636403     0.05600
C1324       C  0.74871734  0.99866662  0.87243720     0.21100
H1325       H  0.83153383  0.97753328  0.89544337     0.10800
C1326       C  0.74046227  0.02548612  0.87675766    -0.15100
C1327       C  0.72490963  0.04305360  0.86812577     0.03800
C1328       C  0.71762454  0.03391913  0.85475266    -0.10500
C1329       C  0.72511151  0.00657777  0.85065517    -0.00500
C1330       C  0.74045096  0.98896698  0.85938718    -0.05600
H1331       H  0.74617595  0.03277306  0.88693902     0.06800
H1332       H  0.71957082  0.99903808  0.84049695     0.10200
Br1333     Br  0.81236619  0.01949169  0.87575549    -0.05300
Br1334     Br  0.74986687  0.91084163  0.90597205    -0.02300
Br1335     Br  0.71323993  0.07853938  0.87559984     0.00600
Br1336     Br  0.75046182  0.95222829  0.85291438    -0.03800
C1337       C  0.94242096  0.90519785  0.92659372    -0.11200
C1338       C  0.95697085  0.92056340  0.91635788     0.04300
C1339       C  0.98635766  0.92007972  0.91598075    -0.11800
C1340       C  0.00171552  0.90468092  0.92566546     0.19100
C1341       C  0.98739434  0.88959828  0.93593903    -0.08800
C1342       C  0.95803215  0.88990266  0.93632252    -0.01800
H1343       H  0.99735851  0.93217995  0.90822488     0.05600
C1344       C  0.03269889  0.90567138  0.92525181     0.21100
H1345       H  0.94737573  0.87795289  0.94424997     0.10800
C1346       C  0.04703596  0.91997484  0.93568197    -0.15100
C1347       C  0.07634943  0.92155855  0.93568871     0.03800
C1348       C  0.09190000  0.90898438  0.92489765    -0.10500
C1349       C  0.07735653  0.89498002  0.91434028    -0.00500
C1350       C  0.04800479  0.89301598  0.91453177    -0.05600
H1351       H  0.03527138  0.92999969  0.94388462     0.06800
H1352       H  0.08887242  0.88496921  0.90606255     0.10200
Br1353     Br  0.00708873  0.86791799  0.94949602    -0.05300
Br1354     Br  0.93852270  0.94410939  0.90312382    -0.02300
Br1355     Br  0.09332472  0.94220010  0.95050669     0.00600
Br1356     Br  0.02970788  0.87175174  0.90035576    -0.03800
C1357       C  0.28497653  0.96099265  0.14752830    -0.11200
C1358       C  0.27695071  0.94904541  0.13475859     0.04300
C1359       C  0.26399661  0.96579962  0.12481295    -0.11800
C1360       C  0.25866583  0.99426004  0.12728440     0.19100
C1361       C  0.26639923  0.00619365  0.13992881    -0.08800
C1362       C  0.27959774  0.98967121  0.14986140    -0.01800
H1363       H  0.25793773  0.95656261  0.11506116     0.05600
C1364       C  0.24496400  0.01111883  0.11651273     0.21100
H1365       H  0.28538166  0.99935776  0.15953896     0.10800
C1366       C  0.21686674  0.01913049  0.11817679    -0.15100
C1367       C  0.20295107  0.03446807  0.10798670     0.03800
C1368       C  0.21738091  0.04190210  0.09572536    -0.10500
C1369       C  0.24573107  0.03399087  0.09426963    -0.00500
C1370       C  0.25949270  0.01878560  0.10451109    -0.05600
H1371       H  0.20564163  0.01320505  0.12745257     0.06800
H1372       H  0.25737548  0.03952802  0.08507161     0.10200
Br1373     Br  0.25960055  0.04503004  0.14400610    -0.05300
Br1374     Br  0.28288557  0.91035806  0.12990298    -0.02300
Br1375     Br  0.16437554  0.04384491  0.11171452     0.00600
Br1376     Br  0.29832202  0.00935865  0.10179601    -0.03800
C1377       C  0.19899811  0.03973606  0.02339885    -0.11200
C1378       C  0.21483047  0.05130994  0.01241289     0.04300
C1379       C  0.21669292  0.03689307  0.99986200    -0.11800
C1380       C  0.20318738  0.01101975  0.99804089     0.19100
C1381       C  0.18870882  0.99878917  0.00912141    -0.08800
C1382       C  0.18674240  0.01306309  0.02162997    -0.01800
H1383       H  0.22821217  0.04617911  0.99138449     0.05600
C1384       C  0.20287629  0.99760157  0.98435959     0.21100
H1385       H  0.17472077  0.00353285  0.02986792     0.10800
C1386       C  0.22559093  0.98093134  0.98018071    -0.15100
C1387       C  0.22445896  0.96565928  0.96786389     0.03800
C1388       C  0.20009766  0.96694224  0.95954768    -0.10500
C1389       C  0.17799241  0.98480089  0.96353105    -0.00500
C1390       C  0.17921145  0.99997512  0.97580350    -0.05600
H1391       H  0.24402572  0.97934572  0.98667579     0.06800
H1392       H  0.15915751  0.98629055  0.95731404     0.10200
Br1393     Br  0.17053126  0.96294276  0.00744418    -0.05300
Br1394     Br  0.23470411  0.08631491  0.01372734    -0.02300
Br1395     Br  0.25710029  0.94418947  0.96292969     0.00600
Br1396     Br  0.14765475  0.02300806  0.98073514    -0.03800
C1397       C  0.79085543  0.02653329  0.09904953    -0.11200
C1398       C  0.80110732  0.00599449  0.10828881     0.04300
C1399       C  0.78253268  0.99239236  0.11727621    -0.11800
C1400       C  0.75379495  0.99886710  0.11730499     0.19100
C1401       C  0.74348638  0.01911517  0.10809943    -0.08800
C1402       C  0.76189996  0.03257923  0.09901963    -0.01800
H1403       H  0.79052798  0.97670466  0.12430645     0.05600
C1404       C  0.73494959  0.98455384  0.12714834     0.21100
H1405       H  0.75352090  0.04812130  0.09201135     0.10800
C1406       C  0.72479555  0.99936711  0.13858331    -0.15100
C1407       C  0.70738634  0.98631982  0.14830113     0.03800
C1408       C  0.69987465  0.95773929  0.14659426    -0.10500
C1409       C  0.70996991  0.94318625  0.13500558    -0.00500
C1410       C  0.72732629  0.95628397  0.12536558    -0.05600
H1411       H  0.73075278  0.02111571  0.14002616     0.06800
H1412       H  0.70445466  0.92136657  0.13340960     0.10200
Br1413     Br  0.70434603  0.02875772  0.10748157    -0.05300
Br1414     Br  0.83979557  0.99450618  0.10888728    -0.02300
Br1415     Br  0.69606277  0.00862857  0.16381987     0.00600
Br1416     Br  0.73971094  0.93473239  0.10983327    -0.03800
C1417       C  0.83696451  0.94683555  0.96890273    -0.11200
C1418       C  0.83298823  0.97620917  0.96968165     0.04300
C1419       C  0.83266333  0.98953988  0.98248249    -0.11800
C1420       C  0.83548109  0.97406298  0.99462771     0.19100
C1421       C  0.83743769  0.94464190  0.99398464    -0.08800
C1422       C  0.83841611  0.93124949  0.98117638    -0.01800
H1423       H  0.83022689  0.01211938  0.98297916     0.05600
C1424       C  0.83651956  0.98922804  0.00782033     0.21100
H1425       H  0.84083870  0.90865947  0.98082914     0.10800
C1426       C  0.81158095  0.99986500  0.01346217    -0.15100
C1427       C  0.81206391  0.01574111  0.02556717     0.03800
C1428       C  0.83787580  0.02106007  0.03219109    -0.10500
C1429       C  0.86276414  0.01000492  0.02660952    -0.00500
C1430       C  0.86228614  0.99447121  0.01442401    -0.05600
H1431       H  0.79173205  0.99586610  0.00839999     0.06800
H1432       H  0.88274320  0.01407961  0.03155110     0.10200
Br1433     Br  0.83840995  0.92211824  0.01033756    -0.05300
Br1434     Br  0.82602472  0.99919581  0.95382857    -0.02300
Br1435     Br  0.77679522  0.02836281  0.03290969     0.00600
Br1436     Br  0.89738750  0.98197110  0.00682982    -0.03800
C1437       C  0.93674741  0.07042437  0.07118252    -0.11200
C1438       C  0.95277674  0.05695952  0.08155309     0.04300
C1439       C  0.98220154  0.05739738  0.08087501    -0.11800
C1440       C  0.99612934  0.07087786  0.07003461     0.19100
C1441       C  0.98039827  0.08416180  0.05971365    -0.08800
C1442       C  0.95107747  0.08391553  0.06035185    -0.01800
H1443       H  0.99433903  0.04710598  0.08884003     0.05600
C1444       C  0.02711597  0.07087808  0.06950811     0.21100
H1445       H  0.93948143  0.09432396  0.05224896     0.10800
C1446       C  0.04079725  0.05336201  0.06006724    -0.15100
C1447       C  0.06999342  0.05445537  0.05841382     0.03800
C1448       C  0.08607313  0.07345154  0.06640574    -0.10500
C1449       C  0.07220714  0.09022628  0.07621844    -0.00500
C1450       C  0.04300878  0.08917353  0.07774711    -0.05600
H1451       H  0.02857089  0.03910515  0.05376675     0.06800
H1452       H  0.08399260  0.10490438  0.08248107     0.10200
Br1453     Br  0.99818529  0.10334989  0.04466909    -0.05300
Br1454     Br  0.93648644  0.03774199  0.09700026    -0.02300
Br1455     Br  0.08604001  0.02913535  0.04516240     0.00600
Br1456     Br  0.02555008  0.11422935  0.09063799    -0.03800
C1457       C  0.23474776  0.54215021  0.90360688    -0.11200
C1458       C  0.26325413  0.54835317  0.90072393     0.04300
C1459       C  0.27732903  0.53356442  0.89039132    -0.11800
C1460       C  0.26370493  0.51254565  0.88283345     0.19100
C1461       C  0.23551554  0.50595557  0.88582475    -0.08800
C1462       C  0.22127187  0.52090130  0.89600917    -0.01800
H1463       H  0.29918981  0.53836195  0.88827790     0.05600
C1464       C  0.27955724  0.49725587  0.87215509     0.21100
H1465       H  0.19954448  0.51552700  0.89808920     0.10800
C1466       C  0.28451063  0.46849451  0.87385516    -0.15100
C1467       C  0.29909035  0.45309468  0.86391952     0.03800
C1468       C  0.30946298  0.46677513  0.85200141    -0.10500
C1469       C  0.30505834  0.49584280  0.85057272    -0.00500
C1470       C  0.29022269  0.51104969  0.86046982    -0.05600
H1471       H  0.27675793  0.45789901  0.88297269     0.06800
H1472       H  0.31274834  0.50686348  0.84157430     0.10200
Br1473     Br  0.21535540  0.47686438  0.87632878    -0.05300
Br1474     Br  0.28457294  0.57658368  0.91022913    -0.02300
Br1475     Br  0.30336254  0.41363831  0.86751107     0.00600
Br1476     Br  0.28413489  0.55035240  0.85721980    -0.03800
C1477       C  0.20190813  0.82298376  0.92751067    -0.11200
C1478       C  0.20958741  0.80587432  0.91622523     0.04300
C1479       C  0.21047583  0.77665205  0.91774529    -0.11800
C1480       C  0.20373316  0.76397198  0.93033101     0.19100
C1481       C  0.19713768  0.78095038  0.94172115    -0.08800
C1482       C  0.19649660  0.81017743  0.94028055    -0.01800
H1483       H  0.21583671  0.76365935  0.90896915     0.05600
C1484       C  0.20183468  0.73302980  0.93111119     0.21100
H1485       H  0.19047859  0.82285337  0.94906100     0.10800
C1486       C  0.22315918  0.71763887  0.93758328    -0.15100
C1487       C  0.22168502  0.68827538  0.93845918     0.03800
C1488       C  0.19826976  0.67388022  0.93287023    -0.10500
C1489       C  0.17719271  0.68954079  0.92625288    -0.00500
C1490       C  0.17882769  0.71875287  0.92534370    -0.05600
H1491       H  0.24111702  0.72853722  0.94188452     0.06800
H1492       H  0.15903904  0.67908470  0.92189170     0.10200
Br1493     Br  0.18689169  0.76505066  0.95915283    -0.05300
Br1494     Br  0.21959428  0.82089358  0.89856067    -0.02300
Br1495     Br  0.25297902  0.66938326  0.94680919     0.00600
Br1496     Br  0.14870221  0.73838349  0.91643252    -0.03800
C1497       C  0.80819396  0.54037303  0.89909516    -0.11200
C1498       C  0.82011374  0.53599989  0.88587774     0.04300
C1499       C  0.80410013  0.52328598  0.87551512    -0.11800
C1500       C  0.77634933  0.51482318  0.87798056     0.19100
C1501       C  0.76428072  0.51955624  0.89096754    -0.08800
C1502       C  0.78005092  0.53238355  0.90131284    -0.01800
H1503       H  0.81349541  0.51952275  0.86552076     0.05600
C1504       C  0.76094800  0.49912615  0.86728611     0.21100
H1505       H  0.77033734  0.53538415  0.91129163     0.10800
C1506       C  0.76813881  0.47106202  0.86481434    -0.15100
C1507       C  0.75292304  0.45471006  0.85545641     0.03800
C1508       C  0.72982714  0.46660545  0.84834504    -0.10500
C1509       C  0.72322976  0.49503905  0.85068508    -0.00500
C1510       C  0.73858745  0.51126965  0.85998685    -0.05600
H1511       H  0.78551923  0.46169819  0.87037545     0.06800
H1512       H  0.70587845  0.50483130  0.84529726     0.10200
Br1513     Br  0.72689545  0.50719100  0.89532588    -0.05300
Br1514     Br  0.85802145  0.54606172  0.88109213    -0.02300
Br1515     Br  0.76543316  0.41668679  0.85297302     0.00600
Br1516     Br  0.72842729  0.54997820  0.86227789    -0.03800
C1517       C  0.84038553  0.66433528  0.93354898    -0.11200
C1518       C  0.84979944  0.68264795  0.94405088     0.04300
C1519       C  0.84710263  0.71169835  0.94237929    -0.11800
C1520       C  0.83479361  0.72308935  0.93052802     0.19100
C1521       C  0.82501687  0.70492417  0.92017695    -0.08800
C1522       C  0.82797506  0.67592363  0.92172016    -0.01800
H1523       H  0.85506722  0.72557832  0.95030528     0.05600
C1524       C  0.83372014  0.75396444  0.92893230     0.21100
H1525       H  0.82043877  0.66234924  0.91357277     0.10800
C1526       C  0.84922666  0.76666696  0.91835943    -0.15100
C1527       C  0.85083069  0.79590495  0.91720793     0.03800
C1528       C  0.83698626  0.81312696  0.92699650    -0.10500
C1529       C  0.82063792  0.80017133  0.93727391    -0.00500
C1530       C  0.81890944  0.77096230  0.93828812    -0.05600
H1531       H  0.86072787  0.75369753  0.91112802     0.06800
H1532       H  0.80949805  0.81277376  0.94478610     0.10200
Br1533     Br  0.80682185  0.71857483  0.90389689    -0.05300
Br1534     Br  0.86781937  0.67001569  0.96060329    -0.02300
Br1535     Br  0.87303192  0.81018125  0.90222132     0.00600
Br1536     Br  0.79594561  0.75529672  0.95261288    -0.03800
C1537       C  0.94634394  0.57167191  0.93323698    -0.11200
C1538       C  0.96308540  0.59360614  0.93874314     0.04300
C1539       C  0.99231993  0.59149928  0.93832019    -0.11800
C1540       C  0.00542468  0.56794649  0.93263033     0.19100
C1541       C  0.98908935  0.54591176  0.92734813    -0.08800
C1542       C  0.95979288  0.54796307  0.92759235    -0.01800
H1543       H  0.00500821  0.60839506  0.94246266     0.05600
C1544       C  0.03626996  0.56706111  0.93250665     0.21100
H1545       H  0.94754275  0.53076527  0.92347195     0.10800
C1546       C  0.05040241  0.56014617  0.94464432    -0.15100
C1547       C  0.07961535  0.56238125  0.94548203     0.03800
C1548       C  0.09511120  0.57185207  0.93394568    -0.10500
C1549       C  0.08081564  0.57784048  0.92164771    -0.00500
C1550       C  0.05158685  0.57573515  0.92090407    -0.05600
H1551       H  0.03853526  0.55348273  0.95359899     0.06800
H1552       H  0.09229502  0.58509607  0.91269054     0.10200
Br1553     Br  0.00590888  0.51249966  0.92001660    -0.05300
Br1554     Br  0.94828274  0.62722758  0.94697248    -0.02300
Br1555     Br  0.09667041  0.55158074  0.96259311     0.00600
Br1556     Br  0.03327276  0.58641305  0.90413372    -0.03800
C1557       C  0.29284622  0.53286879  0.15385537    -0.11200
C1558       C  0.28599019  0.54267907  0.14051875     0.04300
C1559       C  0.26988427  0.52592990  0.13177763    -0.11800
C1560       C  0.26005269  0.49968326  0.13605631     0.19100
C1561       C  0.26649548  0.48986753  0.14928914    -0.08800
C1562       C  0.28295967  0.50633408  0.15803720    -0.01800
H1563       H  0.26491470  0.53342881  0.12154661     0.05600
C1564       C  0.24345507  0.48284153  0.12635495     0.21100
H1565       H  0.28752558  0.49854823  0.16826113     0.10800
C1566       C  0.25680400  0.46157847  0.11888251    -0.15100
C1567       C  0.24240280  0.44673016  0.10868717     0.03800
C1568       C  0.21386661  0.45314850  0.10591080    -0.10500
C1569       C  0.20053515  0.47422631  0.11369273    -0.00500
C1570       C  0.21513871  0.48913041  0.12377196    -0.05600
H1571       H  0.27871873  0.45688402  0.12083741     0.06800
H1572       H  0.17877369  0.47959135  0.11177678     0.10200
Br1573     Br  0.25231027  0.45468930  0.15595801    -0.05300
Br1574     Br  0.29792197  0.57827204  0.13323654    -0.02300
Br1575     Br  0.26336126  0.41813804  0.09921039     0.00600
Br1576     Br  0.19579032  0.51816934  0.13366527    -0.03800
C1577       C  0.19140907  0.17529270  0.06078422    -0.11200
C1578       C  0.21510072  0.18864595  0.06673143     0.04300
C1579       C  0.21555264  0.21793347  0.06816467    -0.11800
C1580       C  0.19304411  0.23433686  0.06355889     0.19100
C1581       C  0.17018969  0.22134960  0.05699671    -0.08800
C1582       C  0.16947129  0.19214724  0.05568291    -0.01800
H1583       H  0.23345896  0.22797446  0.07297936     0.05600
C1584       C  0.19320723  0.26493630  0.06592302     0.21100
H1585       H  0.15120463  0.18259215  0.05096514     0.10800
C1586       C  0.20214649  0.28289483  0.05539952    -0.15100
C1587       C  0.19991461  0.31207454  0.05678780     0.03800
C1588       C  0.18827478  0.32372096  0.06894679    -0.10500
C1589       C  0.18057255  0.30547091  0.07970409    -0.00500
C1590       C  0.18290798  0.27636923  0.07825920    -0.05600
H1591       H  0.21035998  0.27409837  0.04592881     0.06800
H1592       H  0.17176663  0.31374688  0.08915679     0.10200
Br1593     Br  0.13905726  0.24269769  0.05007644    -0.05300
Br1594     Br  0.24790412  0.16867712  0.07275479    -0.02300
Br1595     Br  0.21323176  0.33426033  0.04161777     0.00600
Br1596     Br  0.17054596  0.25292961  0.09313818    -0.03800
C1597       C  0.19875076  0.53471476  0.97299689    -0.11200
C1598       C  0.20658858  0.54641241  0.98582715     0.04300
C1599       C  0.20474821  0.53011950  0.99777266    -0.11800
C1600       C  0.19539914  0.50222266  0.99725763     0.19100
C1601       C  0.18862867  0.49020372  0.98447245    -0.08800
C1602       C  0.19046515  0.50634371  0.97252784    -0.01800
H1603       H  0.20995328  0.53950659  0.00760369     0.05600
C1604       C  0.19081586  0.48668815  0.01022369     0.21100
H1605       H  0.18445052  0.49675498  0.96286163     0.10800
C1606       C  0.16332033  0.47910550  0.01385994    -0.15100
C1607       C  0.15779924  0.46451842  0.02602536     0.03800
C1608       C  0.18014547  0.45757318  0.03496476    -0.10500
C1609       C  0.20764419  0.46571675  0.03141827    -0.00500
C1610       C  0.21311698  0.48000291  0.01912929    -0.05600
H1611       H  0.14598095  0.48470792  0.00717830     0.06800
H1612       H  0.22506979  0.46050755  0.03811306     0.10200
Br1613     Br  0.17643352  0.45189966  0.98279207    -0.05300
Br1614     Br  0.21965288  0.58431737  0.98804417    -0.02300
Br1615     Br  0.11910783  0.45614722  0.02999593     0.00600
Br1616     Br  0.25141791  0.48895391  0.01469152    -0.03800
C1617       C  0.78402407  0.44707648  0.10093868    -0.11200
C1618       C  0.79343627  0.47307769  0.10630055     0.04300
C1619       C  0.77720971  0.48727255  0.11610612    -0.11800
C1620       C  0.75168087  0.47607638  0.12077953     0.19100
C1621       C  0.74203282  0.45047046  0.11530729    -0.08800
C1622       C  0.75810572  0.43626416  0.10544515    -0.01800
H1623       H  0.78452152  0.50719813  0.12011230     0.05600
C1624       C  0.73521435  0.49184669  0.13114035     0.21100
H1625       H  0.75042661  0.41649047  0.10140808     0.10800
C1626       C  0.72019925  0.51570355  0.12703682    -0.15100
C1627       C  0.70510696  0.53175392  0.13659853     0.03800
C1628       C  0.70525838  0.52419033  0.15068486    -0.10500
C1629       C  0.71991724  0.49987935  0.15467329    -0.00500
C1630       C  0.73489312  0.48385748  0.14506804    -0.05600
H1631       H  0.72014677  0.52180324  0.11629360     0.06800
H1632       H  0.72036875  0.49364447  0.16538770     0.10200
Br1633     Br  0.70688690  0.43431997  0.12087743    -0.05300
Br1634     Br  0.82737080  0.49126181  0.10023186    -0.02300
Br1635     Br  0.68381338  0.56280929  0.12951551     0.00600
Br1636     Br  0.75552786  0.45188334  0.15152024    -0.03800
C1637       C  0.82186587  0.31029964  0.07130940    -0.11200
C1638       C  0.81308249  0.29514804  0.08310540     0.04300
C1639       C  0.81300912  0.26574612  0.08291209    -0.11800
C1640       C  0.82167813  0.25088810  0.07121931     0.19100
C1641       C  0.82963901  0.26576919  0.05935294    -0.08800
C1642       C  0.82953275  0.29513937  0.05944368    -0.01800
H1643       H  0.80660141  0.25434126  0.09203176     0.05600
C1644       C  0.82341009  0.21991434  0.07177463     0.21100
H1645       H  0.83640727  0.30612222  0.05028542     0.10800
C1646       C  0.80428850  0.20365851  0.06424660    -0.15100
C1647       C  0.80618679  0.17430503  0.06410512     0.03800
C1648       C  0.82758819  0.16069203  0.07171022    -0.10500
C1649       C  0.84613191  0.17718414  0.07957346    -0.00500
C1650       C  0.84431865  0.20647634  0.07957147    -0.05600
H1651       H  0.78794789  0.21392454  0.05834228     0.06800
H1652       H  0.86280307  0.16733536  0.08542145     0.10200
Br1653     Br  0.84251966  0.24687506  0.04307771    -0.05300
Br1654     Br  0.80071864  0.31270778  0.09983676    -0.02300
Br1655     Br  0.77843710  0.15448427  0.05355288     0.00600
Br1656     Br  0.87194087  0.22735797  0.08969973    -0.03800
C1657       C  0.81564288  0.45143390  0.03373043    -0.11200
C1658       C  0.82107361  0.48061276  0.03319458     0.04300
C1659       C  0.82179675  0.49440052  0.02050831    -0.11800
C1660       C  0.81593031  0.47997935  0.00827137     0.19100
C1661       C  0.80781083  0.45156452  0.00892191    -0.08800
C1662       C  0.80789664  0.43747875  0.02156324    -0.01800
H1663       H  0.82746041  0.51641406  0.02016766     0.05600
C1664       C  0.82044545  0.49441104  0.99495183     0.21100
H1665       H  0.80289664  0.41530620  0.02177430     0.10800
C1666       C  0.84141132  0.48440720  0.98606682    -0.15100
C1667       C  0.84781693  0.49833952  0.97378878     0.03800
C1668       C  0.83328265  0.52332913  0.97028178    -0.10500
C1669       C  0.81200422  0.53300719  0.97917690    -0.00500
C1670       C  0.80551357  0.51880322  0.99136318    -0.05600
H1671       H  0.85316512  0.46577672  0.98881241     0.06800
H1672       H  0.80036102  0.55186268  0.97672099     0.10200
Br1673     Br  0.79638360  0.43124486  0.99282065    -0.05300
Br1674     Br  0.82661386  0.50318110  0.04935079    -0.02300
Br1675     Br  0.87681230  0.48170542  0.96264826     0.00600
Br1676     Br  0.77562995  0.53320519  0.00260281    -0.03800
C1677       C  0.92533806  0.40701236  0.07609134    -0.11200
C1678       C  0.93820238  0.41845445  0.08800330     0.04300
C1679       C  0.96759137  0.41964234  0.08892578    -0.11800
C1680       C  0.98457263  0.40993046  0.07815861     0.19100
C1681       C  0.97195516  0.39870343  0.06631707    -0.08800
C1682       C  0.94268391  0.39733814  0.06535334    -0.01800
H1683       H  0.97728014  0.42853316  0.09801803     0.05600
C1684       C  0.01545813  0.41204198  0.07927003     0.21100
H1685       H  0.93349728  0.38852229  0.05612511     0.10800
C1686       C  0.03046873  0.39055001  0.08576988    -0.15100
C1687       C  0.05991711  0.39080673  0.08606022     0.03800
C1688       C  0.07488452  0.41313567  0.07974203    -0.10500
C1689       C  0.05949062  0.43513334  0.07368822    -0.00500
C1690       C  0.03011608  0.43464171  0.07336869    -0.05600
H1691       H  0.01918631  0.37316085  0.09039118     0.06800
H1692       H  0.07029776  0.45247031  0.06877828     0.10200
Br1693     Br  0.99397697  0.38496546  0.05119913    -0.05300
Br1694     Br  0.91746172  0.43399239  0.10317674    -0.02300
Br1695     Br  0.07778186  0.35981306  0.09519821     0.00600
Br1696     Br  0.01078875  0.46480584  0.06436324    -0.03800
loop_ 
_geom_bond_atom_site_label_1 
_geom_bond_atom_site_label_2 
_geom_bond_distance 
_geom_bond_site_symmetry_2 
_ccdc_geom_bond_type 
O1            C4   1.266       .  A
O1           Cd6   2.497       .  S
C2           O11   1.265       .  A
C2            O7   1.264       .  A
C2         C1637   1.488       .  S
O3            C9   1.263       .  A
O3           Cd6   2.471       .  S
C4           O12   1.262       .  A
C4         C1657   1.483       .  S
C5           O10   1.262       .  A
C5            O8   1.267       .  A
C5         C1617   1.481       .  S
Cd6          O13   2.470       .  S
Cd6          O12   2.447       .  S
Cd6          O11   2.475       .  S
Cd6           O7   2.477       .  S
Cd6          O10   2.436       .  S
Cd6           O8   2.484       .  S
C9           O13   1.266       .  A
C9         C1677   1.488       .  S
O14          C17   1.264       .  A
O14         Cd19   2.452       .  S
C15          O24   1.265       .  A
C15          O20   1.263       .  A
C15        C1588   1.486       .  S
O16          C22   1.266       .  A
O16         Cd19   2.462       .  S
C17          O25   1.265       .  A
C17        C1608   1.479       .  S
C18          O23   1.266       .  A
C18          O21   1.263       .  A
C18        C1688   1.487       .  S
Cd19         O26   2.446       .  S
Cd19         O25   2.469       .  S
Cd19         O24   2.463       .  S
Cd19         O20   2.462       .  S
Cd19         O23   2.472       .  S
Cd19         O21   2.458       .  S
C22          O26   1.262       .  A
C22        C1568   1.481       .  S
O27          C30   1.267       .  A
O27         Cd32   2.474       .  S
C28          O37   1.265       .  A
C28          O33   1.265       .  A
C28        C1517   1.482       .  S
O29          C35   1.266       .  A
O29         Cd32   2.466       .  S
C30          O38   1.262       .  A
C30        C1668   1.487       .  S
C31          O36   1.264       .  A
C31          O34   1.267       .  A
C31        C1497   1.488       .  S
Cd32         O39   2.435       .  S
Cd32         O38   2.452       .  S
Cd32         O37   2.444       .  S
Cd32         O33   2.471       .  S
Cd32         O36   2.463       .  S
Cd32         O34   2.457       .  S
C35          O39   1.261       .  A
C35        C1537   1.481       .  S
O40          C43   1.265       .  A
O40         Cd45   2.475       .  S
C41          O50   1.265       .  A
C41          O46   1.265       .  A
C41        C1597   1.484       .  S
O42          C48   1.265       .  A
O42         Cd45   2.454       .  S
C43          O51   1.264       .  A
C43        C1488   1.485       .  S
C44          O49   1.263       .  A
C44          O47   1.264       .  A
C44        C1457   1.480       .  S
Cd45         O52   2.436       .  S
Cd45         O51   2.453       .  S
Cd45         O50   2.443       .  S
Cd45         O46   2.467       .  S
Cd45         O49   2.433       .  S
Cd45         O47   2.458       .  S
C48          O52   1.263       .  A
C48        C1548   1.475       .  S
O53          C56   1.262       .  A
O53         Cd58   2.445       .  S
C54          O63   1.266       .  A
C54          O59   1.265       .  A
C54        C1648   1.485       .  S
O55          C61   1.264       .  A
O55         Cd58   2.474       .  S
C56          O64   1.265       .  A
C56        C1428   1.472       .  S
C57          O62   1.267       .  A
C57          O60   1.267       .  A
C57        C1437   1.488       .  S
Cd58         O65   2.467       .  S
Cd58         O64   2.471       .  S
Cd58         O63   2.466       .  S
Cd58         O59   2.473       .  S
Cd58         O62   2.447       .  S
Cd58         O60   2.465       .  S
C61          O65   1.264       .  A
C61        C1397   1.484       .  S
O66          C69   1.266       .  A
O66         Cd71   2.483       .  S
C67          O76   1.264       .  A
C67          O72   1.265       .  A
C67        C1577   1.487       .  S
O68          C74   1.263       .  A
O68         Cd71   2.461       .  S
C69          O77   1.265       .  A
C69        C1377   1.487       .  S
C70          O75   1.262       .  A
C70          O73   1.267       .  A
C70        C1368   1.485       .  S
Cd71         O78   2.464       .  S
Cd71         O77   2.455       .  S
Cd71         O76   2.480       .  S
Cd71         O72   2.465       .  S
Cd71         O75   2.452       .  S
Cd71         O73   2.464       .  S
C74          O78   1.265       .  A
C74        C1448   1.483       .  S
O79          C82   1.265       .  A
O79         Cd84   2.475       .  S
C80          O89   1.263       .  A
C80          O85   1.266       .  A
C80        C1528   1.485       .  S
O81          C87   1.265       .  A
O81         Cd84   2.462       .  S
C82          O90   1.264       .  A
C82        C1417   1.480       .  S
C83          O88   1.264       .  A
C83          O86   1.265       .  A
C83        C1337   1.481       .  S
Cd84         O91   2.478       .  S
Cd84         O90   2.451       .  S
Cd84         O89   2.455       .  S
Cd84         O85   2.459       .  S
Cd84         O88   2.465       .  S
Cd84         O86   2.458       .  S
C87          O91   1.264       .  A
C87        C1317   1.488       .  S
O92          C95   1.266       .  A
O92         Cd97   2.473       .  S
C93         O102   1.264       .  A
C93          O98   1.265       .  A
C93        C1477   1.483       .  S
O94         C100   1.266       .  A
O94         Cd97   2.485       .  S
C95         O103   1.265       .  A
C95        C1388   1.483       .  S
C96         O101   1.265       .  A
C96          O99   1.264       .  A
C96        C1308   1.485       .  S
Cd97        O104   2.441       .  S
Cd97        O103   2.449       .  S
Cd97        O102   2.472       .  S
Cd97         O98   2.475       .  S
Cd97        O101   2.474       .  S
Cd97         O99   2.470       .  S
C100        O104   1.262       .  A
C100       C1348   1.480       .  S
O105        C108   1.265       .  A
O105       Cd110   2.477       .  S
C106        O115   1.265       .  A
C106        O111   1.262       .  A
C106       C1237   1.481       .  S
O107        C113   1.265       .  A
O107       Cd110   2.440       .  S
C108        O116   1.265       .  A
C108       C1257   1.486       .  S
C109        O114   1.263       .  A
C109        O112   1.266       .  A
C109       C1357   1.483       .  S
Cd110       O117   2.458       .  S
Cd110       O116   2.450       .  S
Cd110       O115   2.462       .  S
Cd110       O111   2.455       .  S
Cd110       O114   2.448       .  S
Cd110       O112   2.456       .  S
C113        O117   1.263       .  A
C113       C1288   1.479       .  S
O118        C121   1.264       .  A
O118       Cd123   2.464       .  S
C119        O128   1.265       .  A
C119        O124   1.264       .  A
C119       C1208   1.484       .  S
O120        C126   1.261       .  A
O120       Cd123   2.432       .  S
C121        O129   1.264       .  A
C121       C1217   1.485       .  S
C122        O127   1.265       .  A
C122        O125   1.264       .  A
C122       C1277   1.481       .  S
Cd123       O130   2.468       .  S
Cd123       O129   2.456       .  S
Cd123       O128   2.463       .  S
Cd123       O124   2.470       .  S
Cd123       O127   2.448       .  S
Cd123       O125   2.441       .  S
C126        O130   1.266       .  A
C126       C1557   1.480       .  S
O131        C134   1.266       .  A
O131       Cd136   2.470       .  S
C132        O141   1.265       .  A
C132        O137   1.264       .  A
C132       C1268   1.492       .  S
O133        C139   1.264       .  A
O133       Cd136   2.439       .  S
C134        O142   1.263       .  A
C134       C1168   1.487       .  S
C135        O140   1.264       .  A
C135        O138   1.265       .  A
C135       C1177   1.485       .  S
Cd136       O143   2.470       .  S
Cd136       O142   2.470       .  S
Cd136       O141   2.497       .  S
Cd136       O137   2.464       .  S
Cd136       O140   2.453       .  S
Cd136       O138   2.459       .  S
C139        O143   1.265       .  A
C139       C1148   1.484       .  S
O144        C147   1.265       .  A
O144       Cd149   2.467       .  S
C145        O154   1.263       .  A
C145        O150   1.266       .  A
C145       C1228   1.477       .  S
O146        C152   1.265       .  A
O146       Cd149   2.461       .  S
C147        O155   1.264       .  A
C147       C1128   1.487       .  S
C148        O153   1.262       .  A
C148        O151   1.264       .  A
C148       C1108   1.483       .  S
Cd149       O156   2.458       .  S
Cd149       O155   2.462       .  S
Cd149       O154   2.446       .  S
Cd149       O150   2.487       .  S
Cd149       O153   2.465       .  S
Cd149       O151   2.451       .  S
C152        O156   1.263       .  A
C152       C1188   1.482       .  S
O157        C160   1.262       .  A
O157       Cd162   2.454       .  S
C158        O167   1.265       .  A
C158        O163   1.266       .  A
C158       C1197   1.482       .  S
O159        C165   1.263       .  A
O159       Cd162   2.475       .  S
C160        O168   1.265       .  A
C160       C1057   1.483       .  S
C161        O166   1.262       .  A
C161        O164   1.265       .  A
C161       C1628   1.486       .  S
Cd162       O169   2.486       .  S
Cd162       O168   2.492       .  S
Cd162       O167   2.458       .  S
Cd162       O163   2.469       .  S
Cd162       O166   2.464       .  S
Cd162       O164   2.490       .  S
C165        O169   1.266       .  A
C165       C1077   1.489       .  S
O170        C173   1.264       .  A
O170       Cd175   2.457       .  S
C171        O180   1.265       .  A
C171        O176   1.267       .  A
C171       C1037   1.482       .  S
O172        C178   1.264       .  A
O172       Cd175   2.490       .  S
C173        O181   1.263       .  A
C173       C1248   1.486       .  S
C174        O179   1.264       .  A
C174        O177   1.264       .  A
C174       C1408   1.483       .  S
Cd175       O182   2.450       .  S
Cd175       O181   2.470       .  S
Cd175       O180   2.463       .  S
Cd175       O176   2.453       .  S
Cd175       O179   2.438       .  S
Cd175       O177   2.475       .  S
C178        O182   1.264       .  A
C178       C1088   1.484       .  S
O183        C186   1.263       .  A
O183       Cd188   2.456       .  S
C184        O193   1.265       .  A
C184        O189   1.265       .  A
C184       C1157   1.475       .  S
O185        C191   1.262       .  A
O185       Cd188   2.453       .  S
C186        O194   1.265       .  A
C186       C1048   1.479       .  S
C187        O192   1.266       .  A
C187        O190   1.264       .  A
C187       C1017   1.477       .  S
Cd188       O195   2.473       .  S
Cd188       O194   2.467       .  S
Cd188       O193   2.450       .  S
Cd188       O189   2.466       .  S
Cd188       O192   2.473       .  S
Cd188       O190   2.448       .  S
C191        O195   1.264       .  A
C191       C1008   1.484       .  S
O196        C199   1.268       .  A
O196       Cd201   2.489       .  S
C197        O206   1.264       .  A
C197        O202   1.266       .  A
C197       C1117   1.480       .  S
O198        C204   1.264       .  A
O198       Cd201   2.447       .  S
C199        O207   1.261       .  A
C199       C1068   1.486       .  S
C200        O205   1.264       .  A
C200        O203   1.264       .  A
C200        C977   1.477       .  S
Cd201       O208   2.454       .  S
Cd201       O207   2.430       .  S
Cd201       O206   2.450       .  S
Cd201       O202   2.466       .  S
Cd201       O205   2.431       .  S
Cd201       O203   2.457       .  S
C204        O208   1.267       .  A
C204       C1028   1.481       .  S
O209        C212   1.267       .  A
O209       Cd214   2.470       .  S
C210        O219   1.262       .  A
C210        O215   1.266       .  A
C210        C917   1.480       .  S
O211        C217   1.265       .  A
O211       Cd214   2.465       .  S
C212        O220   1.264       .  A
C212        C937   1.479       .  S
C213        O218   1.266       .  A
C213        O216   1.265       .  A
C213        C897   1.483       .  S
Cd214       O221   2.439       .  S
Cd214       O220   2.422       .  S
Cd214       O219   2.449       .  S
Cd214       O215   2.470       .  S
Cd214       O218   2.430       .  S
Cd214       O216   2.456       .  S
C217        O221   1.263       .  A
C217        C957   1.473       .  S
O222        C225   1.265       .  A
O222       Cd227   2.471       .  S
C223        O232   1.264       .  A
C223        O228   1.263       .  A
C223        C877   1.482       .  S
O224        C230   1.266       .  A
O224       Cd227   2.464       .  S
C225        O233   1.263       .  A
C225        C857   1.473       .  S
C226        O231   1.262       .  A
C226        O229   1.265       .  A
C226        C837   1.482       .  S
Cd227       O234   2.437       .  S
Cd227       O233   2.438       .  S
Cd227       O232   2.461       .  S
Cd227       O228   2.470       .  S
Cd227       O231   2.444       .  S
Cd227       O229   2.465       .  S
C230        O234   1.266       .  A
C230        C968   1.479       .  S
O235        C238   1.266       .  A
O235       Cd240   2.466       .  S
C236        O245   1.265       .  A
C236        O241   1.261       .  A
C236        C808   1.484       .  S
O237        C243   1.264       .  A
O237       Cd240   2.478       .  S
C238        O246   1.265       .  A
C238        C948   1.478       .  S
C239        O244   1.264       .  A
C239        O242   1.264       .  A
C239        C988   1.475       .  S
Cd240       O247   2.432       .  S
Cd240       O246   2.434       .  S
Cd240       O245   2.475       .  S
Cd240       O241   2.432       .  S
Cd240       O244   2.430       .  S
Cd240       O242   2.456       .  S
C243        O247   1.264       .  A
C243        C828   1.485       .  S
O248        C251   1.265       .  A
O248       Cd253   2.463       .  S
C249        O258   1.263       .  A
C249        O254   1.266       .  A
C249        C888   1.483       .  S
O250        C256   1.266       .  A
O250       Cd253   2.485       .  S
C251        O259   1.264       .  A
C251        C777   1.481       .  S
C252        O257   1.266       .  A
C252        O255   1.264       .  A
C252       C1097   1.480       .  S
Cd253       O260   2.446       .  S
Cd253       O259   2.462       .  S
Cd253       O258   2.456       .  S
Cd253       O254   2.475       .  S
Cd253       O257   2.466       .  S
Cd253       O255   2.445       .  S
C256        O260   1.262       .  A
C256        C817   1.486       .  S
O261        C264   1.264       .  A
O261       Cd266   2.444       .  S
C262        O271   1.263       .  A
C262        O267   1.265       .  A
C262        C737   1.480       .  S
O263        C269   1.264       .  A
O263       Cd266   2.473       .  S
C264        O272   1.266       .  A
C264        C928   1.480       .  S
C265        O270   1.265       .  A
C265        O268   1.264       .  A
C265        C717   1.478       .  S
Cd266       O273   2.445       .  S
Cd266       O272   2.453       .  S
Cd266       O271   2.454       .  S
Cd266       O267   2.480       .  S
Cd266       O270   2.454       .  S
Cd266       O268   2.454       .  S
C269        O273   1.264       .  A
C269        C768   1.482       .  S
O274        C277   1.266       .  A
O274       Cd279   2.455       .  S
C275        O284   1.264       .  A
C275        O280   1.263       .  A
C275        C868   1.485       .  S
O276        C282   1.263       .  A
O276       Cd279   2.439       .  S
C277        O285   1.264       .  A
C277        C697   1.485       .  S
C278        O283   1.263       .  A
C278        O281   1.265       .  A
C278        C688   1.480       .  S
Cd279       O286   2.471       .  S
Cd279       O285   2.452       .  S
Cd279       O284   2.453       .  S
Cd279       O280   2.474       .  S
Cd279       O283   2.454       .  S
Cd279       O281   2.472       .  S
C282        O286   1.266       .  A
C282        C757   1.479       .  S
O287        C290   1.265       .  A
O287       Cd292   2.452       .  S
C288        O297   1.261       .  A
C288        O293   1.265       .  A
C288        C797   1.479       .  S
O289        C295   1.265       .  A
O289       Cd292   2.443       .  S
C290        O298   1.265       .  A
C290        C748   1.479       .  S
C291        O296   1.263       .  A
C291        O294   1.265       .  A
C291        C657   1.479       .  S
Cd292       O299   2.470       .  S
Cd292       O298   2.474       .  S
Cd292       O297   2.448       .  S
Cd292       O293   2.484       .  S
Cd292       O296   2.452       .  S
Cd292       O294   2.465       .  S
C295        O299   1.266       .  A
C295        C997   1.480       .  S
O300        C303   1.266       .  A
O300       Cd305   2.473       .  S
C301        O310   1.264       .  A
C301        O306   1.267       .  A
C301        C788   1.482       .  S
O302        C308   1.267       .  A
O302       Cd305   2.462       .  S
C303        O311   1.262       .  A
C303        C708   1.486       .  S
C304        O309   1.265       .  A
C304        O307   1.264       .  A
C304       C1137   1.483       .  S
Cd305       O312   2.453       .  S
Cd305       O311   2.451       .  S
Cd305       O310   2.437       .  S
Cd305       O306   2.459       .  S
Cd305       O309   2.460       .  S
Cd305       O307   2.477       .  S
C308        O312   1.263       .  A
C308        C668   1.479       .  S
O313        C316   1.266       .  A
O313       Cd318   2.474       .  S
C314        O323   1.262       .  A
C314        O319   1.265       .  A
C314        C628   1.482       .  S
O315        C321   1.265       .  A
O315       Cd318   2.486       .  S
C316        O324   1.264       .  A
C316        C608   1.482       .  S
C317        O322   1.265       .  A
C317        O320   1.264       .  A
C317        C848   1.487       .  S
Cd318       O325   2.460       .  S
Cd318       O324   2.451       .  S
Cd318       O323   2.446       .  S
Cd318       O319   2.503       .  S
Cd318       O322   2.469       .  S
Cd318       O320   2.476       .  S
C321        O325   1.266       .  A
C321        C637   1.491       .  S
O326        C329   1.265       .  A
O326       Cd331   2.468       .  S
C327        O336   1.265       .  A
C327        O332   1.265       .  A
C327        C568   1.486       .  S
O328        C334   1.266       .  A
O328       Cd331   2.465       .  S
C329        O337   1.264       .  A
C329        C577   1.483       .  S
C330        O335   1.264       .  A
C330        O333   1.265       .  A
C330        C677   1.479       .  S
Cd331       O338   2.462       .  S
Cd331       O337   2.458       .  S
Cd331       O336   2.470       .  S
Cd331       O332   2.480       .  S
Cd331       O335   2.457       .  S
Cd331       O333   2.463       .  S
C334        O338   1.264       .  A
C334        C648   1.481       .  S
O339        C342   1.265       .  A
O339       Cd344   2.422       .  S
C340        O349   1.264       .  A
C340        O345   1.265       .  A
C340        C517   1.477       .  S
O341        C347   1.265       .  A
O341       Cd344   2.457       .  S
C342        O350   1.266       .  A
C342        C588   1.483       .  S
C343        O348   1.265       .  A
C343        O346   1.265       .  A
C343       C1297   1.477       .  S
Cd344       O351   2.456       .  S
Cd344       O350   2.485       .  S
Cd344       O349   2.448       .  S
Cd344       O345   2.460       .  S
Cd344       O348   2.453       .  S
Cd344       O346   2.466       .  S
C347        O351   1.265       .  A
C347        C537   1.482       .  S
O352        C355   1.266       .  A
O352       Cd357   2.460       .  S
C353        O362   1.264       .  A
C353        O358   1.264       .  A
C353        C617   1.485       .  S
O354        C360   1.264       .  A
O354       Cd357   2.450       .  S
C355        O363   1.265       .  A
C355        C508   1.478       .  S
C356        O361   1.261       .  A
C356        O359   1.265       .  A
C356       C1468   1.482       .  S
Cd357       O364   2.461       .  S
Cd357       O363   2.441       .  S
Cd357       O362   2.450       .  S
Cd357       O358   2.481       .  S
Cd357       O361   2.445       .  S
Cd357       O359   2.455       .  S
C360        O364   1.266       .  A
C360        C548   1.478       .  S
O365        C368   1.265       .  A
O365       Cd370   2.449       .  S
C366        O375   1.264       .  A
C366        O371   1.264       .  A
C366        C457   1.477       .  S
O367        C373   1.264       .  A
O367       Cd370   2.458       .  S
C368        O376   1.267       .  A
C368        C557   1.484       .  S
C369        O374   1.264       .  A
C369        O372   1.264       .  A
C369        C728   1.478       .  S
Cd370       O377   2.466       .  S
Cd370       O376   2.460       .  S
Cd370       O375   2.457       .  S
Cd370       O371   2.459       .  S
Cd370       O374   2.473       .  S
Cd370       O372   2.453       .  S
C373        O377   1.263       .  A
C373        C488   1.480       .  S
O378        C381   1.265       .  A
O378       Cd383   2.452       .  S
C379        O388   1.262       .  A
C379        O384   1.265       .  A
C379        C597   1.478       .  S
O380        C386   1.264       .  A
O380       Cd383   2.470       .  S
C381        O389   1.264       .  A
C381        C437   1.477       .  S
C382        O387   1.265       .  A
C382        O385   1.265       .  A
C382        C908   1.484       .  S
Cd383       O390   2.469       .  S
Cd383       O389   2.453       .  S
Cd383       O388   2.444       .  S
Cd383       O384   2.473       .  S
Cd383       O387   2.450       .  S
Cd383       O385   2.479       .  S
C386        O390   1.264       .  A
C386        C477   1.488       .  S
O391        C394   1.262       .  A
O391       Cd396   2.439       .  S
C392        O401   1.265       .  A
C392        O397   1.264       .  A
C392        C497   1.482       .  S
O393        C399   1.267       .  A
O393       Cd396   2.477       .  S
C394        O402   1.265       .  A
C394        C448   1.477       .  S
C395        O400   1.263       .  A
C395        O398   1.263       .  A
C395       C1508   1.486       .  S
Cd396       O403   2.450       .  S
Cd396       O402   2.487       .  S
Cd396       O401   2.460       .  S
Cd396       O397   2.463       .  S
Cd396       O400   2.480       .  S
Cd396       O398   2.452       .  S
C399        O403   1.264       .  A
C399        C428   1.486       .  S
O404        C407   1.266       .  A
O404       Cd409   2.469       .  S
C405        O414   1.264       .  A
C405        O410   1.266       .  A
C405        C468   1.484       .  S
O406        C412   1.265       .  A
O406       Cd409   2.482       .  S
C407        O415   1.262       .  A
C407        C528   1.479       .  S
C408        O413   1.264       .  A
C408        O411   1.265       .  A
C408       C1328   1.482       .  S
Cd409       O416   2.455       .  S
Cd409       O415   2.443       .  S
Cd409       O414   2.460       .  S
Cd409       O410   2.464       .  S
Cd409       O413   2.451       .  S
Cd409       O411   2.475       .  S
C412        O416   1.265       .  A
C412        C417   1.490       .  S
C417        C418   1.419       .  A
C417        C422   1.408       .  A
C418        C419   1.403       .  A
C418       Br434   1.921       .  S
C419        C420   1.401       .  A
C419        H423   1.084       .  S
C420        C424   1.479       .  S
C420        C421   1.405       .  A
C421        C422   1.396       .  A
C421       Br433   1.920       .  S
C422        H425   1.083       .  S
C424        C426   1.400       .  A
C424        C430   1.406       .  A
C426        C427   1.398       .  A
C426        H431   1.084       .  S
C427        C428   1.417       .  A
C427       Br435   1.922       .  S
C428        C429   1.409       .  A
C429        C430   1.401       .  A
C429        H432   1.083       .  S
C430       Br436   1.918       .  S
C437        C438   1.415       .  A
C437        C442   1.405       .  A
C438        C439   1.400       .  A
C438       Br454   1.921       .  S
C439        C440   1.400       .  A
C439        H443   1.083       .  S
C440        C444   1.472       .  S
C440        C441   1.405       .  A
C441        C442   1.395       .  A
C441       Br453   1.920       .  S
C442        H445   1.083       .  S
C444        C446   1.399       .  A
C444        C450   1.405       .  A
C446        C447   1.396       .  A
C446        H451   1.084       .  S
C447        C448   1.414       .  A
C447       Br455   1.921       .  S
C448        C449   1.406       .  A
C449        C450   1.399       .  A
C449        H452   1.083       .  S
C450       Br456   1.919       .  S
C457        C458   1.414       .  A
C457        C462   1.405       .  A
C458        C459   1.400       .  A
C458       Br474   1.920       .  S
C459        C460   1.400       .  A
C459        H463   1.084       .  S
C460        C464   1.472       .  S
C460        C461   1.405       .  A
C461        C462   1.396       .  A
C461       Br473   1.920       .  S
C462        H465   1.084       .  S
C464        C466   1.398       .  A
C464        C470   1.404       .  A
C466        C467   1.397       .  A
C466        H471   1.083       .  S
C467        C468   1.417       .  A
C467       Br475   1.921       .  S
C468        C469   1.408       .  A
C469        C470   1.398       .  A
C469        H472   1.083       .  S
C470       Br476   1.918       .  S
C477        C478   1.418       .  A
C477        C482   1.409       .  A
C478        C479   1.400       .  A
C478       Br494   1.921       .  S
C479        C480   1.399       .  A
C479        H483   1.083       .  S
C480        C484   1.474       .  S
C480        C481   1.403       .  A
C481        C482   1.398       .  A
C481       Br493   1.920       .  S
C482        H485   1.083       .  S
C484        C486   1.401       .  A
C484        C490   1.404       .  A
C486        C487   1.400       .  A
C486        H491   1.083       .  S
C487        C488   1.416       .  A
C487       Br495   1.922       .  S
C488        C489   1.406       .  A
C489        C490   1.396       .  A
C489        H492   1.083       .  S
C490       Br496   1.919       .  S
C497        C498   1.415       .  A
C497        C502   1.406       .  A
C498        C499   1.400       .  A
C498       Br514   1.920       .  S
C499        C500   1.401       .  A
C499        H503   1.083       .  S
C500        C504   1.475       .  S
C500        C501   1.406       .  A
C501        C502   1.396       .  A
C501       Br513   1.920       .  S
C502        H505   1.083       .  S
C504        C506   1.402       .  A
C504        C510   1.406       .  A
C506        C507   1.400       .  A
C506        H511   1.084       .  S
C507        C508   1.413       .  A
C507       Br515   1.920       .  S
C508        C509   1.405       .  A
C509        C510   1.396       .  A
C509        H512   1.084       .  S
C510       Br516   1.919       .  S
C517        C518   1.413       .  A
C517        C522   1.406       .  A
C518        C519   1.395       .  A
C518       Br534   1.921       .  S
C519        C520   1.401       .  A
C519        H523   1.084       .  S
C520        C524   1.476       .  S
C520        C521   1.407       .  A
C521        C522   1.398       .  A
C521       Br533   1.920       .  S
C522        H525   1.084       .  S
C524        C526   1.400       .  A
C524        C530   1.407       .  A
C526        C527   1.396       .  A
C526        H531   1.084       .  S
C527        C528   1.416       .  A
C527       Br535   1.922       .  S
C528        C529   1.406       .  A
C529        C530   1.397       .  A
C529        H532   1.083       .  S
C530       Br536   1.920       .  S
C537        C538   1.415       .  A
C537        C542   1.406       .  A
C538        C539   1.399       .  A
C538       Br554   1.921       .  S
C539        C540   1.401       .  A
C539        H543   1.083       .  S
C540        C544   1.476       .  S
C540        C541   1.406       .  A
C541        C542   1.397       .  A
C541       Br553   1.919       .  S
C542        H545   1.083       .  S
C544        C546   1.401       .  A
C544        C550   1.407       .  A
C546        C547   1.399       .  A
C546        H551   1.084       .  S
C547        C548   1.414       .  A
C547       Br555   1.922       .  S
C548        C549   1.405       .  A
C549        C550   1.397       .  A
C549        H552   1.084       .  S
C550       Br556   1.919       .  S
C557        C558   1.417       .  A
C557        C562   1.407       .  A
C558        C559   1.401       .  A
C558       Br574   1.922       .  S
C559        C560   1.401       .  A
C559        H563   1.084       .  S
C560        C564   1.477   1_655  S
C560        C561   1.405       .  A
C561        C562   1.397       .  A
C561       Br573   1.919       .  S
C562        H565   1.084       .  S
C564        C566   1.401       .  A
C564        C570   1.406       .  A
C566        C567   1.403       .  A
C566        H571   1.083       .  S
C567        C568   1.417       .  A
C567       Br575   1.920       .  S
C568        C569   1.407       .  A
C569        C570   1.397       .  A
C569        H572   1.083       .  S
C570       Br576   1.921       .  S
C577        C578   1.415       .  A
C577        C582   1.408       .  A
C578        C579   1.399       .  A
C578       Br594   1.920       .  S
C579        C580   1.401       .  A
C579        H583   1.084       .  S
C580        C584   1.474       .  S
C580        C581   1.404       .  A
C581        C582   1.397       .  A
C581       Br593   1.919       .  S
C582        H585   1.084       .  S
C584        C586   1.402       .  A
C584        C590   1.403       .  A
C586        C587   1.402       .  A
C586        H591   1.083       .  S
C587        C588   1.417       .  A
C587       Br595   1.920       .  S
C588        C589   1.407       .  A
C589        C590   1.393       .  A
C589        H592   1.083       .  S
C590       Br596   1.919       .  S
C597        C598   1.415       .  A
C597        C602   1.406       .  A
C598        C599   1.397       .  A
C598       Br614   1.923       .  S
C599        C600   1.400       .  A
C599        H603   1.083       .  S
C600        C604   1.475   1_655  S
C600        C601   1.406       .  A
C601        C602   1.399       .  A
C601       Br613   1.917       .  S
C602        H605   1.083       .  S
C604        C606   1.400       .  A
C604        C610   1.406       .  A
C606        C607   1.399       .  A
C606        H611   1.084       .  S
C607        C608   1.415       .  A
C607       Br615   1.921       .  S
C608        C609   1.407       .  A
C609        C610   1.399       .  A
C609        H612   1.084       .  S
C610       Br616   1.919       .  S
C617        C618   1.417       .  A
C617        C622   1.407       .  A
C618        C619   1.402       .  A
C618       Br634   1.921       .  S
C619        C620   1.401       .  A
C619        H623   1.084       .  S
C620        C624   1.477       .  S
C620        C621   1.405       .  A
C621        C622   1.396       .  A
C621       Br633   1.919       .  S
C622        H625   1.083       .  S
C624        C626   1.399       .  A
C624        C630   1.407       .  A
C626        C627   1.396       .  A
C626        H631   1.083       .  S
C627        C628   1.414       .  A
C627       Br635   1.922       .  S
C628        C629   1.408       .  A
C629        C630   1.404       .  A
C629        H632   1.083       .  S
C630       Br636   1.918       .  S
C637        C638   1.419       .  A
C637        C642   1.408       .  A
C638        C639   1.402       .  A
C638       Br654   1.921       .  S
C639        C640   1.402       .  A
C639        H643   1.084       .  S
C640        C644   1.481       .  S
C640        C641   1.406       .  A
C641        C642   1.397       .  A
C641       Br653   1.920       .  S
C642        H645   1.083       .  S
C644        C646   1.403       .  A
C644        C650   1.407       .  A
C646        C647   1.399       .  A
C646        H651   1.084       .  S
C647        C648   1.414       .  A
C647       Br655   1.922       .  S
C648        C649   1.406       .  A
C649        C650   1.398       .  A
C649        H652   1.083       .  S
C650       Br656   1.918       .  S
C657        C658   1.415       .  A
C657        C662   1.407       .  A
C658        C659   1.398       .  A
C658       Br674   1.922       .  S
C659        C660   1.400       .  A
C659        H663   1.083       .  S
C660        C664   1.472       .  S
C660        C661   1.404       .  A
C661        C662   1.397       .  A
C661       Br673   1.918       .  S
C662        H665   1.084       .  S
C664        C666   1.400       .  A
C664        C670   1.404       .  A
C666        C667   1.398       .  A
C666        H671   1.084       .  S
C667        C668   1.416       .  A
C667       Br675   1.922       .  S
C668        C669   1.406       .  A
C669        C670   1.397       .  A
C669        H672   1.083       .  S
C670       Br676   1.917       .  S
C677        C678   1.415       .  A
C677        C682   1.407       .  A
C678        C679   1.397       .  A
C678       Br694   1.921       .  S
C679        C680   1.399       .  A
C679        H683   1.083       .  S
C680        C684   1.472       .  S
C680        C681   1.405       .  A
C681        C682   1.398       .  A
C681       Br693   1.918   1_545  S
C682        H685   1.084       .  S
C684        C686   1.399   1_545  A
C684        C690   1.404       .  A
C686        C687   1.398       .  A
C686        H691   1.084       .  S
C687        C688   1.415       .  A
C687       Br695   1.921       .  S
C688        C689   1.407       .  A
C689        C690   1.398   1_565  A
C689        H692   1.083       .  S
C690       Br696   1.919       .  S
C697        C698   1.418   1_565  A
C697        C702   1.408       .  A
C698        C699   1.399       .  A
C698       Br714   1.922       .  S
C699        C700   1.400       .  A
C699        H703   1.083       .  S
C700        C704   1.476       .  S
C700        C701   1.404   1_545  A
C701        C702   1.397       .  A
C701       Br713   1.919       .  S
C702        H705   1.083       .  S
C704        C706   1.400       .  A
C704        C710   1.404       .  A
C706        C707   1.399       .  A
C706        H711   1.083   1_545  S
C707        C708   1.419       .  A
C707       Br715   1.923       .  S
C708        C709   1.408       .  A
C709        C710   1.398       .  A
C709        H712   1.082       .  S
C710       Br716   1.919       .  S
C717        C718   1.415       .  A
C717        C722   1.407       .  A
C718        C719   1.398       .  A
C718       Br734   1.921       .  S
C719        C720   1.399   1_565  A
C719        H723   1.083   1_565  S
C720        C724   1.470       .  S
C720        C721   1.404   1_545  A
C721        C722   1.396       .  A
C721       Br733   1.919       .  S
C722        H725   1.082       .  S
C724        C726   1.400       .  A
C724        C730   1.403       .  A
C726        C727   1.397       .  A
C726        H731   1.081       .  S
C727        C728   1.414       .  A
C727       Br735   1.920       .  S
C728        C729   1.408       .  A
C729        C730   1.398       .  A
C729        H732   1.082       .  S
C730       Br736   1.918   1_545  S
C737        C738   1.413   1_565  A
C737        C742   1.406       .  A
C738        C739   1.398       .  A
C738       Br754   1.921       .  S
C739        C740   1.401       .  A
C739        H743   1.082       .  S
C740        C744   1.477       .  S
C740        C741   1.406   1_545  A
C741        C742   1.400       .  A
C741       Br753   1.919       .  S
C742        H745   1.082       .  S
C744        C746   1.403       .  A
C744        C750   1.406       .  A
C746        C747   1.402       .  A
C746        H751   1.082   1_545  S
C747        C748   1.414       .  A
C747       Br755   1.920       .  S
C748        C749   1.405       .  A
C749        C750   1.396       .  A
C749        H752   1.082       .  S
C750       Br756   1.919       .  S
C757        C758   1.415       .  A
C757        C762   1.407       .  A
C758        C759   1.396       .  A
C758       Br774   1.922       .  S
C759        C760   1.399       .  A
C759        H763   1.083       .  S
C760        C764   1.473       .  S
C760        C761   1.405       .  A
C761        C762   1.399       .  A
C761       Br773   1.918       .  S
C762        H765   1.083       .  S
C764        C766   1.400       .  A
C764        C770   1.404       .  A
C766        C767   1.399       .  A
C766        H771   1.084       .  S
C767        C768   1.416       .  A
C767       Br775   1.921       .  S
C768        C769   1.407       .  A
C769        C770   1.395       .  A
C769        H772   1.084       .  S
C770       Br776   1.919       .  S
C777        C778   1.415       .  A
C777        C782   1.407       .  A
C778        C779   1.398       .  A
C778       Br794   1.920       .  S
C779        C780   1.400       .  A
C779        H783   1.084       .  S
C780        C784   1.474       .  S
C780        C781   1.406       .  A
C781        C782   1.397       .  A
C781       Br793   1.920       .  S
C782        H785   1.084       .  S
C784        C786   1.399       .  A
C784        C790   1.405       .  A
C786        C787   1.397       .  A
C786        H791   1.083       .  S
C787        C788   1.418       .  A
C787       Br795   1.923       .  S
C788        C789   1.408       .  A
C789        C790   1.398       .  A
C789        H792   1.083       .  S
C790       Br796   1.919       .  S
C797        C798   1.415       .  A
C797        C802   1.406       .  A
C798        C799   1.396       .  A
C798       Br814   1.922       .  S
C799        C800   1.400       .  A
C799        H803   1.084       .  S
C800        C804   1.475       .  S
C800        C801   1.406       .  A
C801        C802   1.399       .  A
C801       Br813   1.918       .  S
C802        H805   1.083       .  S
C804        C806   1.398       .  A
C804        C810   1.405       .  A
C806        C807   1.397       .  A
C806        H811   1.084       .  S
C807        C808   1.418       .  A
C807       Br815   1.923       .  S
C808        C809   1.408       .  A
C809        C810   1.398       .  A
C809        H812   1.083       .  S
C810       Br816   1.919       .  S
C817        C818   1.418       .  A
C817        C822   1.409       .  A
C818        C819   1.397       .  A
C818       Br834   1.922       .  S
C819        C820   1.399       .  A
C819        H823   1.083       .  S
C820        C824   1.475       .  S
C820        C821   1.405       .  A
C821        C822   1.400       .  A
C821       Br833   1.919       .  S
C822        H825   1.082       .  S
C824        C826   1.401       .  A
C824        C830   1.404       .  A
C826        C827   1.402       .  A
C826        H831   1.084       .  S
C827        C828   1.418       .  A
C827       Br835   1.921       .  S
C828        C829   1.407       .  A
C829        C830   1.393       .  A
C829        H832   1.083       .  S
C830       Br836   1.920       .  S
C837        C838   1.417       .  A
C837        C842   1.407       .  A
C838        C839   1.399       .  A
C838       Br854   1.923       .  S
C839        C840   1.400       .  A
C839        H843   1.083       .  S
C840        C844   1.478       .  S
C840        C841   1.407       .  A
C841        C842   1.397       .  A
C841       Br853   1.918       .  S
C842        H845   1.083       .  S
C844        C846   1.401       .  A
C844        C850   1.406       .  A
C846        C847   1.402       .  A
C846        H851   1.083       .  S
C847        C848   1.418       .  A
C847       Br855   1.921       .  S
C848        C849   1.407       .  A
C849        C850   1.397       .  A
C849        H852   1.082       .  S
C850       Br856   1.920       .  S
C857        C858   1.412       .  A
C857        C862   1.405       .  A
C858        C859   1.395       .  A
C858       Br874   1.923       .  S
C859        C860   1.400       .  A
C859        H863   1.084       .  S
C860        C864   1.471       .  S
C860        C861   1.405       .  A
C861        C862   1.399       .  A
C861       Br873   1.918       .  S
C862        H865   1.083       .  S
C864        C866   1.399       .  A
C864        C870   1.402       .  A
C866        C867   1.400       .  A
C866        H871   1.084       .  S
C867        C868   1.419       .  A
C867       Br875   1.921       .  S
C868        C869   1.408       .  A
C869        C870   1.395       .  A
C869        H872   1.083       .  S
C870       Br876   1.919       .  S
C877        C878   1.416       .  A
C877        C882   1.406       .  A
C878        C879   1.400       .  A
C878       Br894   1.921       .  S
C879        C880   1.401       .  A
C879        H883   1.084       .  S
C880        C884   1.476       .  S
C880        C881   1.406       .  A
C881        C882   1.397       .  A
C881       Br893   1.919       .  S
C882        H885   1.084       .  S
C884        C886   1.400       .  A
C884        C890   1.406       .  A
C886        C887   1.398       .  A
C886        H891   1.084       .  S
C887        C888   1.416       .  A
C887       Br895   1.921       .  S
C888        C889   1.407       .  A
C889        C890   1.399       .  A
C889        H892   1.083       .  S
C890       Br896   1.919       .  S
C897        C898   1.418       .  A
C897        C902   1.407       .  A
C898        C899   1.401       .  A
C898       Br914   1.922       .  S
C899        C900   1.401       .  A
C899        H903   1.083       .  S
C900        C904   1.475       .  S
C900        C901   1.404       .  A
C901        C902   1.394       .  A
C901       Br913   1.918       .  S
C902        H905   1.083       .  S
C904        C906   1.401       .  A
C904        C910   1.404       .  A
C906        C907   1.401       .  A
C906        H911   1.083       .  S
C907        C908   1.416       .  A
C907       Br915   1.921       .  S
C908        C909   1.407       .  A
C909        C910   1.397       .  A
C909        H912   1.082       .  S
C910       Br916   1.918       .  S
C917        C918   1.417       .  A
C917        C922   1.406       .  A
C918        C919   1.398       .  A
C918       Br934   1.921       .  S
C919        C920   1.399       .  A
C919        H923   1.084       .  S
C920        C924   1.472       .  S
C920        C921   1.406       .  A
C921        C922   1.395       .  A
C921       Br933   1.921       .  S
C922        H925   1.084       .  S
C924        C926   1.399       .  A
C924        C930   1.405       .  A
C926        C927   1.397       .  A
C926        H931   1.084       .  S
C927        C928   1.416       .  A
C927       Br935   1.921       .  S
C928        C929   1.407       .  A
C929        C930   1.396       .  A
C929        H932   1.083       .  S
C930       Br936   1.920       .  S
C937        C938   1.414       .  A
C937        C942   1.406       .  A
C938        C939   1.400       .  A
C938       Br954   1.920       .  S
C939        C940   1.402       .  A
C939        H943   1.084       .  S
C940        C944   1.475       .  S
C940        C941   1.405       .  A
C941        C942   1.394       .  A
C941       Br953   1.920       .  S
C942        H945   1.084       .  S
C944        C946   1.403       .  A
C944        C950   1.405       .  A
C946        C947   1.401       .  A
C946        H951   1.084       .  S
C947        C948   1.414       .  A
C947       Br955   1.921       .  S
C948        C949   1.405       .  A
C949        C950   1.394       .  A
C949        H952   1.084       .  S
C950       Br956   1.920       .  S
C957        C958   1.412       .  A
C957        C962   1.405       .  A
C958        C959   1.395       .  A
C958       Br974   1.922       .  S
C959        C960   1.400       .  A
C959        H963   1.084       .  S
C960        C964   1.470       .  S
C960        C961   1.405       .  A
C961        C962   1.398       .  A
C961       Br973   1.918       .  S
C962        H965   1.083       .  S
C964        C966   1.400       .  A
C964        C970   1.404       .  A
C966        C967   1.399       .  A
C966        H971   1.083       .  S
C967        C968   1.415       .  A
C967       Br975   1.920       .  S
C968        C969   1.406       .  A
C969        C970   1.394       .  A
C969        H972   1.083       .  S
C970       Br976   1.919       .  S
C977        C978   1.415       .  A
C977        C982   1.407       .  A
C978        C979   1.397       .  A
C978       Br994   1.921       .  S
C979        C980   1.400       .  A
C979        H983   1.083       .  S
C980        C984   1.467       .  S
C980        C981   1.402       .  A
C981        C982   1.394       .  A
C981       Br993   1.919       .  S
C982        H985   1.082       .  S
C984        C986   1.400       .  A
C984        C990   1.403       .  A
C986        C987   1.398       .  A
C986        H991   1.083       .  S
C987        C988   1.415       .  A
C987       Br995   1.921       .  S
C988        C989   1.405       .  A
C989        C990   1.392       .  A
C989        H992   1.083       .  S
C990       Br996   1.919       .  S
C997        C998   1.414       .  A
C997       C1002   1.407       .  A
C998        C999   1.400       .  A
C998      Br1014   1.920       .  S
C999       C1000   1.400       .  A
C999       H1003   1.081       .  S
C1000      C1004   1.473       .  S
C1000      C1001   1.404       .  A
C1001      C1002   1.397       .  A
C1001     Br1013   1.918       .  S
C1002      H1005   1.081       .  S
C1004      C1006   1.401   1_545  A
C1004      C1010   1.403       .  A
C1006      C1007   1.400       .  A
C1006      H1011   1.060       .  S
C1007      C1008   1.417       .  A
C1007     Br1015   1.922       .  S
C1008      C1009   1.409   1_565  A
C1009      C1010   1.399       .  A
C1009      H1012   1.077       .  S
C1010     Br1016   1.918       .  S
C1017      C1018   1.413       .  A
C1017      C1022   1.405       .  A
C1018      C1019   1.398       .  A
C1018     Br1034   1.922       .  S
C1019      C1020   1.401       .  A
C1019      H1023   1.083       .  S
C1020      C1024   1.477       .  S
C1020      C1021   1.407       .  A
C1021      C1022   1.399       .  A
C1021     Br1033   1.919       .  S
C1022      H1025   1.082       .  S
C1024      C1026   1.401       .  A
C1024      C1030   1.406       .  A
C1026      C1027   1.400       .  A
C1026      H1031   1.084       .  S
C1027      C1028   1.416       .  A
C1027     Br1035   1.922       .  S
C1028      C1029   1.406       .  A
C1029      C1030   1.396       .  A
C1029      H1032   1.084       .  S
C1030     Br1036   1.919       .  S
C1037      C1038   1.416       .  A
C1037      C1042   1.407       .  A
C1038      C1039   1.399       .  A
C1038     Br1054   1.920       .  S
C1039      C1040   1.400       .  A
C1039      H1043   1.083       .  S
C1040      C1044   1.473       .  S
C1040      C1041   1.404       .  A
C1041      C1042   1.396       .  A
C1041     Br1053   1.918       .  S
C1042      H1045   1.083       .  S
C1044      C1046   1.400       .  A
C1044      C1050   1.405       .  A
C1046      C1047   1.400       .  A
C1046      H1051   1.084       .  S
C1047      C1048   1.415       .  A
C1047     Br1055   1.921       .  S
C1048      C1049   1.406       .  A
C1049      C1050   1.396       .  A
C1049      H1052   1.083       .  S
C1050     Br1056   1.920       .  S
C1057      C1058   1.415       .  A
C1057      C1062   1.407       .  A
C1058      C1059   1.398       .  A
C1058     Br1074   1.921       .  S
C1059      C1060   1.401       .  A
C1059      H1063   1.084       .  S
C1060      C1064   1.480       .  S
C1060      C1061   1.408       .  A
C1061      C1062   1.400       .  A
C1061     Br1073   1.920       .  S
C1062      H1065   1.083       .  S
C1064      C1066   1.399       .  A
C1064      C1070   1.407       .  A
C1066      C1067   1.397       .  A
C1066      H1071   1.083       .  S
C1067      C1068   1.419       .  A
C1067     Br1075   1.923       .  S
C1068      C1069   1.408       .  A
C1069      C1070   1.400       .  A
C1069      H1072   1.083       .  S
C1070     Br1076   1.919       .  S
C1077      C1078   1.418       .  A
C1077      C1082   1.407       .  A
C1078      C1079   1.402       .  A
C1078     Br1094   1.921       .  S
C1079      C1080   1.402       .  A
C1079      H1083   1.083       .  S
C1080      C1084   1.483       .  S
C1080      C1081   1.407       .  A
C1081      C1082   1.400       .  A
C1081     Br1093   1.919       .  S
C1082      H1085   1.083       .  S
C1084      C1086   1.404       .  A
C1084      C1090   1.407       .  A
C1086      C1087   1.404       .  A
C1086      H1091   1.084       .  S
C1087      C1088   1.415       .  A
C1087     Br1095   1.920       .  S
C1088      C1089   1.405       .  A
C1089      C1090   1.396       .  A
C1089      H1092   1.084       .  S
C1090     Br1096   1.918       .  S
C1097      C1098   1.416       .  A
C1097      C1102   1.406       .  A
C1098      C1099   1.399       .  A
C1098     Br1114   1.921       .  S
C1099      C1100   1.400       .  A
C1099      H1103   1.083       .  S
C1100      C1104   1.472       .  S
C1100      C1101   1.405       .  A
C1101      C1102   1.397       .  A
C1101     Br1113   1.919       .  S
C1102      H1105   1.083       .  S
C1104      C1106   1.400       .  A
C1104      C1110   1.403       .  A
C1106      C1107   1.399       .  A
C1106      H1111   1.083       .  S
C1107      C1108   1.418       .  A
C1107     Br1115   1.922       .  S
C1108      C1109   1.408       .  A
C1109      C1110   1.395       .  A
C1109      H1112   1.083       .  S
C1110     Br1116   1.919       .  S
C1117      C1118   1.413       .  A
C1117      C1122   1.407       .  A
C1118      C1119   1.400       .  A
C1118     Br1134   1.920       .  S
C1119      C1120   1.401       .  A
C1119      H1123   1.084       .  S
C1120      C1124   1.474   1_655  S
C1120      C1121   1.405       .  A
C1121      C1122   1.396       .  A
C1121     Br1133   1.920       .  S
C1122      H1125   1.084       .  S
C1124      C1126   1.399       .  A
C1124      C1130   1.404       .  A
C1126      C1127   1.398       .  A
C1126      H1131   1.083       .  S
C1127      C1128   1.418       .  A
C1127     Br1135   1.922       .  S
C1128      C1129   1.410       .  A
C1129      C1130   1.399       .  A
C1129      H1132   1.082       .  S
C1130     Br1136   1.919       .  S
C1137      C1138   1.417       .  A
C1137      C1142   1.407       .  A
C1138      C1139   1.401       .  A
C1138     Br1154   1.920       .  S
C1139      C1140   1.399       .  A
C1139      H1143   1.083       .  S
C1140      C1144   1.471       .  S
C1140      C1141   1.404       .  A
C1141      C1142   1.395       .  A
C1141     Br1153   1.920       .  S
C1142      H1145   1.083       .  S
C1144      C1146   1.399       .  A
C1144      C1150   1.403   1_545  A
C1146      C1147   1.399       .  A
C1146      H1151   1.083       .  S
C1147      C1148   1.417   1_545  A
C1147     Br1155   1.921       .  S
C1148      C1149   1.409       .  A
C1149      C1150   1.396       .  A
C1149      H1152   1.082       .  S
C1150     Br1156   1.919       .  S
C1157      C1158   1.412       .  A
C1157      C1162   1.404       .  A
C1158      C1159   1.401       .  A
C1158     Br1174   1.919       .  S
C1159      C1160   1.402       .  A
C1159      H1163   1.084       .  S
C1160      C1164   1.474       .  S
C1160      C1161   1.406       .  A
C1161      C1162   1.396       .  A
C1161     Br1173   1.919       .  S
C1162      H1165   1.084       .  S
C1164      C1166   1.399   1_655  A
C1164      C1170   1.404   1_655  A
C1166      C1167   1.400       .  A
C1166      H1171   1.084   1_455  S
C1167      C1168   1.419       .  A
C1167     Br1175   1.921       .  S
C1168      C1169   1.408       .  A
C1169      C1170   1.397       .  A
C1169      H1172   1.083       .  S
C1170     Br1176   1.918   1_455  S
C1177      C1178   1.416       .  A
C1177      C1182   1.409       .  A
C1178      C1179   1.397       .  A
C1178     Br1194   1.922       .  S
C1179      C1180   1.402       .  A
C1179      H1183   1.084       .  S
C1180      C1184   1.481       .  S
C1180      C1181   1.407       .  A
C1181      C1182   1.398       .  A
C1181     Br1193   1.920       .  S
C1182      H1185   1.084       .  S
C1184      C1186   1.402       .  A
C1184      C1190   1.408       .  A
C1186      C1187   1.398       .  A
C1186      H1191   1.083       .  S
C1187      C1188   1.415       .  A
C1187     Br1195   1.921       .  S
C1188      C1189   1.406       .  A
C1189      C1190   1.397       .  A
C1189      H1192   1.082       .  S
C1190     Br1196   1.920       .  S
C1197      C1198   1.414       .  A
C1197      C1202   1.406       .  A
C1198      C1199   1.399       .  A
C1198     Br1214   1.920       .  S
C1199      C1200   1.401       .  A
C1199      H1203   1.084       .  S
C1200      C1204   1.477       .  S
C1200      C1201   1.406       .  A
C1201      C1202   1.398       .  A
C1201     Br1213   1.919       .  S
C1202      H1205   1.083       .  S
C1204      C1206   1.401       .  A
C1204      C1210   1.406       .  A
C1206      C1207   1.401       .  A
C1206      H1211   1.083       .  S
C1207      C1208   1.416       .  A
C1207     Br1215   1.920       .  S
C1208      C1209   1.407       .  A
C1209      C1210   1.397       .  A
C1209      H1212   1.083       .  S
C1210     Br1216   1.920       .  S
C1217      C1218   1.417       .  A
C1217      C1222   1.408       .  A
C1218      C1219   1.401       .  A
C1218     Br1234   1.922       .  S
C1219      C1220   1.400       .  A
C1219      H1223   1.084       .  S
C1220      C1224   1.474       .  S
C1220      C1221   1.403       .  A
C1221      C1222   1.396       .  A
C1221     Br1233   1.919       .  S
C1222      H1225   1.083       .  S
C1224      C1226   1.400       .  A
C1224      C1230   1.406       .  A
C1226      C1227   1.397       .  A
C1226      H1231   1.083       .  S
C1227      C1228   1.412       .  A
C1227     Br1235   1.921       .  S
C1228      C1229   1.406       .  A
C1229      C1230   1.401       .  A
C1229      H1232   1.083       .  S
C1230     Br1236   1.918       .  S
C1237      C1238   1.416       .  A
C1237      C1242   1.406       .  A
C1238      C1239   1.399       .  A
C1238     Br1254   1.923       .  S
C1239      C1240   1.402       .  A
C1239      H1243   1.084       .  S
C1240      C1244   1.478       .  S
C1240      C1241   1.406       .  A
C1241      C1242   1.397       .  A
C1241     Br1253   1.918       .  S
C1242      H1245   1.083       .  S
C1244      C1246   1.401       .  A
C1244      C1250   1.405       .  A
C1246      C1247   1.399       .  A
C1246      H1251   1.084       .  S
C1247      C1248   1.417       .  A
C1247     Br1255   1.922       .  S
C1248      C1249   1.408       .  A
C1249      C1250   1.396       .  A
C1249      H1252   1.083       .  S
C1250     Br1256   1.919       .  S
C1257      C1258   1.416       .  A
C1257      C1262   1.408       .  A
C1258      C1259   1.402       .  A
C1258     Br1274   1.921       .  S
C1259      C1260   1.402       .  A
C1259      H1263   1.084       .  S
C1260      C1264   1.480       .  S
C1260      C1261   1.406       .  A
C1261      C1262   1.397       .  A
C1261     Br1273   1.918       .  S
C1262      H1265   1.083       .  S
C1264      C1266   1.402       .  A
C1264      C1270   1.405       .  A
C1266      C1267   1.404       .  A
C1266      H1271   1.083       .  S
C1267      C1268   1.418       .  A
C1267     Br1275   1.920       .  S
C1268      C1269   1.409       .  A
C1269      C1270   1.398       .  A
C1269      H1272   1.083       .  S
C1270     Br1276   1.920       .  S
C1277      C1278   1.417       .  A
C1277      C1282   1.409       .  A
C1278      C1279   1.396       .  A
C1278     Br1294   1.922       .  S
C1279      C1280   1.398       .  A
C1279      H1283   1.084       .  S
C1280      C1284   1.468       .  S
C1280      C1281   1.402       .  A
C1281      C1282   1.396       .  A
C1281     Br1293   1.918       .  S
C1282      H1285   1.083       .  S
C1284      C1286   1.398       .  A
C1284      C1290   1.403       .  A
C1286      C1287   1.397       .  A
C1286      H1291   1.083       .  S
C1287      C1288   1.417       .  A
C1287     Br1295   1.921       .  S
C1288      C1289   1.407       .  A
C1289      C1290   1.394       .  A
C1289      H1292   1.083       .  S
C1290     Br1296   1.919       .  S
C1297      C1298   1.413       .  A
C1297      C1302   1.404       .  A
C1298      C1299   1.401       .  A
C1298     Br1314   1.921       .  S
C1299      C1300   1.402       .  A
C1299      H1303   1.083   1_545  S
C1300      C1304   1.476   1_545  S
C1300      C1301   1.406       .  A
C1301      C1302   1.397       .  A
C1301     Br1313   1.918       .  S
C1302      H1305   1.083       .  S
C1304      C1306   1.400       .  A
C1304      C1310   1.405       .  A
C1306      C1307   1.400       .  A
C1306      H1311   1.083       .  S
C1307      C1308   1.416       .  A
C1307     Br1315   1.920       .  S
C1308      C1309   1.408       .  A
C1309      C1310   1.399       .  A
C1309      H1312   1.083       .  S
C1310     Br1316   1.918   1_565  S
C1317      C1318   1.418       .  A
C1317      C1322   1.408       .  A
C1318      C1319   1.401       .  A
C1318     Br1334   1.921       .  S
C1319      C1320   1.400       .  A
C1319      H1323   1.083       .  S
C1320      C1324   1.478       .  S
C1320      C1321   1.405       .  A
C1321      C1322   1.397       .  A
C1321     Br1333   1.920   1_565  S
C1322      H1325   1.083       .  S
C1324      C1326   1.400   1_565  A
C1324      C1330   1.407       .  A
C1326      C1327   1.398       .  A
C1326      H1331   1.084       .  S
C1327      C1328   1.414       .  A
C1327     Br1335   1.921       .  S
C1328      C1329   1.407       .  A
C1329      C1330   1.400   1_545  A
C1329      H1332   1.084   1_545  S
C1330     Br1336   1.919       .  S
C1337      C1338   1.415       .  A
C1337      C1342   1.407       .  A
C1338      C1339   1.398       .  A
C1338     Br1354   1.921       .  S
C1339      C1340   1.400   1_655  A
C1339      H1343   1.083       .  S
C1340      C1344   1.475       .  S
C1340      C1341   1.406   1_455  A
C1341      C1342   1.397       .  A
C1341     Br1353   1.920   1_655  S
C1342      H1345   1.083       .  S
C1344      C1346   1.399       .  A
C1344      C1350   1.406       .  A
C1346      C1347   1.396       .  A
C1346      H1351   1.084       .  S
C1347      C1348   1.416       .  A
C1347     Br1355   1.922       .  S
C1348      C1349   1.406       .  A
C1349      C1350   1.399       .  A
C1349      H1352   1.083       .  S
C1350     Br1356   1.919       .  S
C1357      C1358   1.418       .  A
C1357      C1362   1.408       .  A
C1358      C1359   1.398       .  A
C1358     Br1374   1.922       .  S
C1359      C1360   1.400       .  A
C1359      H1363   1.084       .  S
C1360      C1364   1.473   1_565  S
C1360      C1361   1.404   1_565  A
C1361      C1362   1.396   1_545  A
C1361     Br1373   1.919       .  S
C1362      H1365   1.084       .  S
C1364      C1366   1.399       .  A
C1364      C1370   1.404       .  A
C1366      C1367   1.399       .  A
C1366      H1371   1.085       .  S
C1367      C1368   1.420       .  A
C1367     Br1375   1.923       .  S
C1368      C1369   1.407       .  A
C1369      C1370   1.395       .  A
C1369      H1372   1.084       .  S
C1370     Br1376   1.919       .  S
C1377      C1378   1.418       .  A
C1377      C1382   1.408       .  A
C1378      C1379   1.403   1_554  A
C1378     Br1394   1.920       .  S
C1379      C1380   1.400       .  A
C1379      H1383   1.083       .  S
C1380      C1384   1.476   1_545  S
C1380      C1381   1.404   1_546  A
C1381      C1382   1.396   1_565  A
C1381     Br1393   1.920       .  S
C1382      H1385   1.083       .  S
C1384      C1386   1.401       .  A
C1384      C1390   1.405       .  A
C1386      C1387   1.402       .  A
C1386      H1391   1.084       .  S
C1387      C1388   1.415       .  A
C1387     Br1395   1.920       .  S
C1388      C1389   1.407       .  A
C1389      C1390   1.396       .  A
C1389      H1392   1.084       .  S
C1390     Br1396   1.920   1_565  S
C1397      C1398   1.416       .  A
C1397      C1402   1.407       .  A
C1398      C1399   1.400   1_545  A
C1398     Br1414   1.921   1_545  S
C1399      C1400   1.401       .  A
C1399      H1403   1.082       .  S
C1400      C1404   1.477       .  S
C1400      C1401   1.405   1_565  A
C1401      C1402   1.398       .  A
C1401     Br1413   1.919       .  S
C1402      H1405   1.083       .  S
C1404      C1406   1.402       .  A
C1404      C1410   1.405       .  A
C1406      C1407   1.401       .  A
C1406      H1411   1.083   1_565  S
C1407      C1408   1.417       .  A
C1407     Br1415   1.921   1_565  S
C1408      C1409   1.407       .  A
C1409      C1410   1.395       .  A
C1409      H1412   1.083       .  S
C1410     Br1416   1.918       .  S
C1417      C1418   1.414       .  A
C1417      C1422   1.407       .  A
C1418      C1419   1.397       .  A
C1418     Br1434   1.920       .  S
C1419      C1420   1.399       .  A
C1419      H1423   1.083   1_565  S
C1420      C1424   1.473   1_556  S
C1420      C1421   1.405       .  A
C1421      C1422   1.400       .  A
C1421     Br1433   1.919   1_556  S
C1422      H1425   1.082       .  S
C1424      C1426   1.401       .  A
C1424      C1430   1.407       .  A
C1426      C1427   1.399   1_565  A
C1426      H1431   1.082       .  S
C1427      C1428   1.410       .  A
C1427     Br1435   1.919       .  S
C1428      C1429   1.404       .  A
C1429      C1430   1.397   1_545  A
C1429      H1432   1.083       .  S
C1430     Br1436   1.919       .  S
C1437      C1438   1.419       .  A
C1437      C1442   1.409       .  A
C1438      C1439   1.401       .  A
C1438     Br1454   1.921       .  S
C1439      C1440   1.400       .  A
C1439      H1443   1.084       .  S
C1440      C1444   1.475   1_655  S
C1440      C1441   1.404       .  A
C1441      C1442   1.396       .  A
C1441     Br1453   1.920       .  S
C1442      H1445   1.083       .  S
C1444      C1446   1.400       .  A
C1444      C1450   1.404       .  A
C1446      C1447   1.399       .  A
C1446      H1451   1.084       .  S
C1447      C1448   1.417       .  A
C1447     Br1455   1.922       .  S
C1448      C1449   1.408       .  A
C1449      C1450   1.397       .  A
C1449      H1452   1.083       .  S
C1450     Br1456   1.919       .  S
C1457      C1458   1.415       .  A
C1457      C1462   1.407       .  A
C1458      C1459   1.397       .  A
C1458     Br1474   1.921       .  S
C1459      C1460   1.401       .  A
C1459      H1463   1.084       .  S
C1460      C1464   1.475       .  S
C1460      C1461   1.407       .  A
C1461      C1462   1.394       .  A
C1461     Br1473   1.921       .  S
C1462      H1465   1.083       .  S
C1464      C1466   1.400       .  A
C1464      C1470   1.406       .  A
C1466      C1467   1.396       .  A
C1466      H1471   1.084       .  S
C1467      C1468   1.417       .  A
C1467     Br1475   1.922       .  S
C1468      C1469   1.407       .  A
C1469      C1470   1.395       .  A
C1469      H1472   1.083       .  S
C1470     Br1476   1.920       .  S
C1477      C1478   1.414       .  A
C1477      C1482   1.407       .  A
C1478      C1479   1.400       .  A
C1478     Br1494   1.920       .  S
C1479      C1480   1.401       .  A
C1479      H1483   1.084       .  S
C1480      C1484   1.478       .  S
C1480      C1481   1.406       .  A
C1481      C1482   1.399       .  A
C1481     Br1493   1.919       .  S
C1482      H1485   1.084       .  S
C1484      C1486   1.402       .  A
C1484      C1490   1.405       .  A
C1486      C1487   1.403       .  A
C1486      H1491   1.084       .  S
C1487      C1488   1.416       .  A
C1487     Br1495   1.921       .  S
C1488      C1489   1.407       .  A
C1489      C1490   1.396       .  A
C1489      H1492   1.083       .  S
C1490     Br1496   1.919       .  S
C1497      C1498   1.419       .  A
C1497      C1502   1.408       .  A
C1498      C1499   1.401       .  A
C1498     Br1514   1.922       .  S
C1499      C1500   1.400       .  A
C1499      H1503   1.084       .  S
C1500      C1504   1.476       .  S
C1500      C1501   1.404       .  A
C1501      C1502   1.396       .  A
C1501     Br1513   1.920       .  S
C1502      H1505   1.083       .  S
C1504      C1506   1.400       .  A
C1504      C1510   1.404       .  A
C1506      C1507   1.399       .  A
C1506      H1511   1.085       .  S
C1507      C1508   1.417       .  A
C1507     Br1515   1.921       .  S
C1508      C1509   1.408       .  A
C1509      C1510   1.396       .  A
C1509      H1512   1.084       .  S
C1510     Br1516   1.919       .  S
C1517      C1518   1.415       .  A
C1517      C1522   1.407       .  A
C1518      C1519   1.399       .  A
C1518     Br1534   1.921       .  S
C1519      C1520   1.403       .  A
C1519      H1523   1.084       .  S
C1520      C1524   1.479       .  S
C1520      C1521   1.406       .  A
C1521      C1522   1.396       .  A
C1521     Br1533   1.919       .  S
C1522      H1525   1.083       .  S
C1524      C1526   1.402       .  A
C1524      C1530   1.406       .  A
C1526      C1527   1.399       .  A
C1526      H1531   1.083       .  S
C1527      C1528   1.418       .  A
C1527     Br1535   1.922       .  S
C1528      C1529   1.408       .  A
C1529      C1530   1.397       .  A
C1529      H1532   1.083       .  S
C1530     Br1536   1.920       .  S
C1537      C1538   1.418       .  A
C1537      C1542   1.409       .  A
C1538      C1539   1.395       .  A
C1538     Br1554   1.923       .  S
C1539      C1540   1.397   1_655  A
C1539      H1543   1.083   1_655  S
C1540      C1544   1.468       .  S
C1540      C1541   1.403   1_455  A
C1541      C1542   1.397       .  A
C1541     Br1553   1.918   1_655  S
C1542      H1545   1.082       .  S
C1544      C1546   1.399       .  A
C1544      C1550   1.404       .  A
C1546      C1547   1.396       .  A
C1546      H1551   1.084       .  S
C1547      C1548   1.415       .  A
C1547     Br1555   1.922       .  S
C1548      C1549   1.406       .  A
C1549      C1550   1.396       .  A
C1549      H1552   1.084       .  S
C1550     Br1556   1.919       .  S
C1557      C1558   1.417       .  A
C1557      C1562   1.408       .  A
C1558      C1559   1.395       .  A
C1558     Br1574   1.922       .  S
C1559      C1560   1.397       .  A
C1559      H1563   1.083       .  S
C1560      C1564   1.469       .  S
C1560      C1561   1.403       .  A
C1561      C1562   1.397       .  A
C1561     Br1573   1.918       .  S
C1562      H1565   1.083       .  S
C1564      C1566   1.398       .  A
C1564      C1570   1.403       .  A
C1566      C1567   1.397       .  A
C1566      H1571   1.083       .  S
C1567      C1568   1.418       .  A
C1567     Br1575   1.922       .  S
C1568      C1569   1.407       .  A
C1569      C1570   1.395       .  A
C1569      H1572   1.083       .  S
C1570     Br1576   1.919       .  S
C1577      C1578   1.417       .  A
C1577      C1582   1.408       .  A
C1578      C1579   1.402       .  A
C1578     Br1594   1.920       .  S
C1579      C1580   1.400       .  A
C1579      H1583   1.083       .  S
C1580      C1584   1.475       .  S
C1580      C1581   1.404       .  A
C1581      C1582   1.397       .  A
C1581     Br1593   1.919       .  S
C1582      H1585   1.083       .  S
C1584      C1586   1.399       .  A
C1584      C1590   1.405       .  A
C1586      C1587   1.400       .  A
C1586      H1591   1.084       .  S
C1587      C1588   1.418       .  A
C1587     Br1595   1.921       .  S
C1588      C1589   1.408       .  A
C1589      C1590   1.397       .  A
C1589      H1592   1.084       .  S
C1590     Br1596   1.919       .  S
C1597      C1598   1.416       .  A
C1597      C1602   1.408       .  A
C1598      C1599   1.400       .  A
C1598     Br1614   1.921       .  S
C1599      C1600   1.401       .  A
C1599      H1603   1.084   1_556  S
C1600      C1604   1.478   1_556  S
C1600      C1601   1.406       .  A
C1601      C1602   1.395       .  A
C1601     Br1613   1.921       .  S
C1602      H1605   1.083       .  S
C1604      C1606   1.401       .  A
C1604      C1610   1.407       .  A
C1606      C1607   1.396       .  A
C1606      H1611   1.084       .  S
C1607      C1608   1.413       .  A
C1607     Br1615   1.921       .  S
C1608      C1609   1.406       .  A
C1609      C1610   1.399       .  A
C1609      H1612   1.084       .  S
C1610     Br1616   1.919       .  S
C1617      C1618   1.416       .  A
C1617      C1622   1.405       .  A
C1618      C1619   1.400       .  A
C1618     Br1634   1.923       .  S
C1619      C1620   1.401       .  A
C1619      H1623   1.083       .  S
C1620      C1624   1.480       .  S
C1620      C1621   1.407       .  A
C1621      C1622   1.400       .  A
C1621     Br1633   1.917       .  S
C1622      H1625   1.083       .  S
C1624      C1626   1.401       .  A
C1624      C1630   1.407       .  A
C1626      C1627   1.401       .  A
C1626      H1631   1.084       .  S
C1627      C1628   1.416       .  A
C1627     Br1635   1.921       .  S
C1628      C1629   1.407       .  A
C1629      C1630   1.400       .  A
C1629      H1632   1.084       .  S
C1630     Br1636   1.918       .  S
C1637      C1638   1.418       .  A
C1637      C1642   1.408       .  A
C1638      C1639   1.400       .  A
C1638     Br1654   1.920       .  S
C1639      C1640   1.400       .  A
C1639      H1643   1.083       .  S
C1640      C1644   1.478       .  S
C1640      C1641   1.406       .  A
C1641      C1642   1.399       .  A
C1641     Br1653   1.920       .  S
C1642      H1645   1.083       .  S
C1644      C1646   1.401       .  A
C1644      C1650   1.406       .  A
C1646      C1647   1.401       .  A
C1646      H1651   1.084       .  S
C1647      C1648   1.417       .  A
C1647     Br1655   1.920       .  S
C1648      C1649   1.407       .  A
C1649      C1650   1.398       .  A
C1649      H1652   1.084       .  S
C1650     Br1656   1.920       .  S
C1657      C1658   1.414       .  A
C1657      C1662   1.406       .  A
C1658      C1659   1.398       .  A
C1658     Br1674   1.921       .  S
C1659      C1660   1.402       .  A
C1659      H1663   1.083       .  S
C1660      C1664   1.482   1_554  S
C1660      C1661   1.408       .  A
C1661      C1662   1.400       .  A
C1661     Br1673   1.919   1_554  S
C1662      H1665   1.082       .  S
C1664      C1666   1.402       .  A
C1664      C1670   1.406       .  A
C1666      C1667   1.399       .  A
C1666      H1671   1.083       .  S
C1667      C1668   1.419       .  A
C1667     Br1675   1.923       .  S
C1668      C1669   1.408       .  A
C1669      C1670   1.399       .  A
C1669      H1672   1.082       .  S
C1670     Br1676   1.919   1_556  S
C1677      C1678   1.419       .  A
C1677      C1682   1.407       .  A
C1678      C1679   1.402       .  A
C1678     Br1694   1.922       .  S
C1679      C1680   1.400       .  A
C1679      H1683   1.083       .  S
C1680      C1684   1.477   1_655  S
C1680      C1681   1.404       .  A
C1681      C1682   1.397       .  A
C1681     Br1693   1.919       .  S
C1682      H1685   1.083       .  S
C1684      C1686   1.400       .  A
C1684      C1690   1.404       .  A
C1686      C1687   1.401       .  A
C1686      H1691   1.084       .  S
C1687      C1688   1.419       .  A
C1687     Br1695   1.922       .  S
C1688      C1689   1.408       .  A
C1689      C1690   1.398       .  A
C1689      H1692   1.083       .  S
C1690     Br1696   1.918       .  S
