geometry optimzed in LAMMPS
_audit_creation_date              2020-12-01 
_audit_creation_method            'lammps2cif' 
_symmetry_space_group_name_H-M    'P1' 
_symmetry_Int_Tables_number       1 
_symmetry_cell_setting            triclinic 
loop_ 
_symmetry_equiv_pos_as_xyz 
  x,y,z 
_cell_length_a                    74.19999278 
_cell_length_b                    74.21146351423877 
_cell_length_c                    74.21523512694618 
_cell_angle_alpha                 89.96559315758273 
_cell_angle_beta                  89.96926564848827 
_cell_angle_gamma                 90.01905541639115 
loop_ 
_atom_site_label 
_atom_site_type_symbol 
_atom_site_fract_x 
_atom_site_fract_y 
_atom_site_fract_z 
_atom_site_charge 
O1          O  0.78395903  0.51835201  0.75770599    -0.71600
O2          O  0.75657377  0.48016613  0.78447949    -0.72500
O3          O  0.78374793  0.48009869  0.75762359    -0.61200
O4          O  0.75676369  0.51836360  0.78455110    -0.69600
O5          O  0.73572488  0.51849708  0.76322137    -0.69100
O6          O  0.76266149  0.48027239  0.73634134    -0.60400
O7          O  0.73551865  0.48032772  0.76316766    -0.72900
O8          O  0.76289149  0.51846601  0.73641140    -0.71700
Cu9        Cu  0.77101246  0.49923519  0.77184906     1.04600
Cu10       Cu  0.74845845  0.49939296  0.74903255     1.04300
C11         C  0.77767093  0.52440382  0.74288729     0.94600
C12         C  0.74177379  0.47428733  0.77799796     0.93800
C13         C  0.77739445  0.47419982  0.74278040     0.85900
C14         C  0.74203609  0.52441748  0.77806803     0.92200
O15         O  0.47478734  0.80737183  0.73570130    -0.71600
O16         O  0.43653503  0.78008658  0.76238443    -0.72500
O17         O  0.43654243  0.80715619  0.73549797    -0.61200
O18         O  0.47475674  0.78028811  0.76258341    -0.69600
O19         O  0.47454765  0.80138177  0.78384642    -0.69100
O20         O  0.43627619  0.82829241  0.75671833    -0.60400
O21         O  0.43629549  0.80118962  0.78363991    -0.72900
O22         O  0.47459049  0.82850004  0.75693020    -0.71700
Cu23       Cu  0.45566262  0.79299150  0.74829005     1.04600
Cu24       Cu  0.45541810  0.81559893  0.77103696     1.04300
C25         C  0.48072306  0.82214934  0.74217312     0.94600
C26         C  0.43042974  0.78637917  0.77717225     0.93800
C27         C  0.43037465  0.82186429  0.74190373     0.85900
C28         C  0.48064683  0.78664291  0.77742711     0.92200
O29         O  0.78470032  0.80182697  0.43709826    -0.71600
O30         O  0.75791942  0.82888819  0.47547482    -0.72500
O31         O  0.78478736  0.80169934  0.47533303    -0.61200
O32         O  0.75786444  0.82898195  0.43722254    -0.69600
O33         O  0.73657520  0.80788435  0.43723585    -0.69100
O34         O  0.76345227  0.78065211  0.47531920    -0.60400
O35         O  0.73662287  0.80780235  0.47543733    -0.72900
O36         O  0.76338257  0.78075945  0.43713069    -0.71700
Cu37       Cu  0.77207498  0.81610185  0.45628261     1.04600
Cu38       Cu  0.74925505  0.79353595  0.45628219     1.04300
C39         C  0.77820647  0.78707467  0.43111408     0.94600
C40         C  0.74309034  0.82254480  0.48146582     0.93800
C41         C  0.77830981  0.78691493  0.48128625     0.85900
C42         C  0.74303760  0.82265233  0.43124457     0.92200
N43         N  0.26472859  0.89881266  0.30387371    -0.25900
N44         N  0.25717935  0.91425589  0.30858595    -0.33800
C45         C  0.24512854  0.91119033  0.32176475     0.02400
C46         C  0.24515159  0.89299120  0.32543266     0.08500
C47         C  0.25767488  0.88548037  0.31394091    -0.04600
H48         H  0.23708763  0.92147486  0.32825489     0.09100
H49         H  0.26149463  0.87143717  0.31303630     0.10300
Cu50       Cu  0.26376138  0.93888082  0.29730482     0.44200
Cu51       Cu  0.28450858  0.89668065  0.28429191     0.42000
Cu52       Cu  0.29860263  0.93902919  0.26378030     0.43900
N53         N  0.27292975  0.96209701  0.28488994    -0.33300
N54         N  0.28579027  0.96217279  0.27257033    -0.27600
C55         C  0.28919020  0.97927998  0.26765630    -0.03700
C56         C  0.27792831  0.99047998  0.27740201     0.08600
C57         C  0.26777994  0.97914673  0.28817257     0.02400
H58         H  0.29939322  0.98325741  0.25802282     0.10000
H59         H  0.25770129  0.98299412  0.29798040     0.09100
N60         N  0.30954195  0.91418658  0.25742543    -0.34800
N61         N  0.30443750  0.89878572  0.26484559    -0.26900
C62         C  0.31442617  0.88532892  0.25795599    -0.02200
C63         C  0.32627395  0.89269572  0.24567880     0.06400
C64         C  0.32289841  0.91094816  0.24562024     0.04500
H65         H  0.31324769  0.87129522  0.26175038     0.09600
H66         H  0.32972623  0.92115546  0.23774532     0.08500
N67         N  0.26397949  0.10192419  0.30360087    -0.25900
N68         N  0.25643050  0.08644620  0.30825688    -0.33800
C69         C  0.24433880  0.08943736  0.32141268     0.02400
C70         C  0.24431198  0.10761964  0.32513519     0.08500
C71         C  0.25686457  0.11519967  0.31369227    -0.04600
H72         H  0.23631958  0.07910376  0.32787257     0.09100
H73         H  0.26068621  0.12925018  0.31286349     0.10300
Cu74       Cu  0.26303453  0.06180444  0.29702983     0.44200
Cu75       Cu  0.28392219  0.10420282  0.28411373     0.42000
Cu76       Cu  0.29741505  0.06194272  0.26321951     0.43900
N77         N  0.27224386  0.03861910  0.28459613    -0.33300
N78         N  0.28493214  0.03868759  0.27210471    -0.27600
C79         C  0.28859648  0.02162036  0.26728750    -0.03700
C80         C  0.27768953  0.01027829  0.27727905     0.08600
C81         C  0.26745846  0.02149483  0.28808661     0.02400
H82         H  0.29879498  0.01777256  0.25760423     0.10000
H83         H  0.25763645  0.01752056  0.29810908     0.09100
N84         N  0.30874361  0.08663523  0.25711302    -0.34800
N85         N  0.30393352  0.10204324  0.26468530    -0.26900
C86         C  0.31412362  0.11539018  0.25782491    -0.02200
C87         C  0.32576750  0.10792184  0.24540902     0.06400
C88         C  0.32208184  0.08973933  0.24525566     0.04500
H89         H  0.31315835  0.12942404  0.26165838     0.09600
H90         H  0.32863596  0.07948947  0.23722257     0.08500
O91         O  0.47521750  0.19270292  0.17519805    -0.71600
O92         O  0.43685259  0.21979263  0.14853631    -0.72500
O93         O  0.43697737  0.19283851  0.17559132    -0.61200
O94         O  0.47505123  0.21959649  0.14815127    -0.69600
O95         O  0.47476828  0.19838300  0.12700368    -0.69100
O96         O  0.43669379  0.17161237  0.15445669    -0.60400
O97         O  0.43652945  0.19858301  0.12738864    -0.72900
O98         O  0.47494346  0.17147158  0.15407187    -0.71700
Cu99       Cu  0.45602701  0.20697973  0.16261826     1.04600
Cu100      Cu  0.45571375  0.18425462  0.13998379     1.04300
C101        C  0.48113848  0.17790390  0.16876158     0.94600
C102        C  0.43070411  0.21343544  0.13379973     0.93800
C103        C  0.43086993  0.17805518  0.16929148     0.85900
C104        C  0.48089560  0.21314788  0.13332562     0.92200
N105        N  0.64672932  0.89776533  0.30465528    -0.25900
N106        N  0.65387654  0.91331426  0.30965828    -0.33800
C107        C  0.66554486  0.91038779  0.32319143     0.02400
C108        C  0.66568876  0.89217854  0.32678900     0.08500
C109        C  0.65367001  0.88450898  0.31488453    -0.04600
H110        H  0.67326333  0.92076515  0.32991983     0.09100
H111        H  0.65016094  0.87039870  0.31376170     0.10300
Cu112      Cu  0.64740062  0.93791758  0.29826179     0.44200
Cu113      Cu  0.62769098  0.89530849  0.28441630     0.42000
Cu114      Cu  0.61410738  0.93756681  0.26339841     0.43900
N115        N  0.63828634  0.96108681  0.28571334    -0.33300
N116        N  0.62595678  0.96099953  0.27287746    -0.27600
C117        C  0.62237083  0.97809068  0.26800918    -0.03700
C118        C  0.63297861  0.98944711  0.27830644     0.08600
C119        C  0.64291933  0.97821395  0.28936395     0.02400
H120        H  0.61252129  0.98194395  0.25797955     0.10000
H121        H  0.65251609  0.98217483  0.29959224     0.09100
N122        N  0.60342045  0.91262733  0.25680448    -0.34800
N123        N  0.60834072  0.89726603  0.26441833    -0.26900
C124        C  0.59847240  0.88376933  0.25742701    -0.02200
C125        C  0.58688593  0.89106061  0.24487625     0.06400
C126        C  0.59029221  0.90931588  0.24477271     0.04500
H127        H  0.59949941  0.86977172  0.26139193     0.09600
H128        H  0.58358091  0.91948646  0.23676468     0.08500
N129        N  0.64667001  0.10102185  0.30414278    -0.25900
N130        N  0.65414743  0.08558208  0.30901411    -0.33800
C131        C  0.66609154  0.08869217  0.32226507     0.02400
C132        C  0.66609383  0.10690764  0.32582614     0.08500
C133        C  0.65368510  0.11438819  0.31418318    -0.04600
H134        H  0.67404953  0.07842054  0.32888026     0.09100
H135        H  0.64991313  0.12843687  0.31316104     0.10300
Cu136      Cu  0.64766976  0.06083895  0.29791736     0.44200
Cu137      Cu  0.62700010  0.10317893  0.28439924     0.42000
Cu138      Cu  0.61318614  0.06097210  0.26402456     0.43900
N139        N  0.63830951  0.03765114  0.28558275    -0.33300
N140        N  0.62562691  0.03768114  0.27309054    -0.27600
C141        C  0.62203196  0.02058053  0.26828207    -0.03700
C142        C  0.63295782  0.00927025  0.27829191     0.08600
C143        C  0.64312505  0.02054300  0.28909606     0.02400
H144        H  0.61191099  0.01668432  0.25854583     0.10000
H145        H  0.65300610  0.01661893  0.29906719     0.09100
N146        N  0.60219234  0.08574762  0.25737453    -0.34800
N147        N  0.60721275  0.10117592  0.26476278    -0.26900
C148        C  0.59733275  0.11461432  0.25765009    -0.02200
C149        C  0.58563276  0.10720169  0.24525920     0.06400
C150        C  0.58899576  0.08893901  0.24537909     0.04500
H151        H  0.59851588  0.12867388  0.26132783     0.09600
H152        H  0.58230272  0.07870051  0.23744855     0.08500
O153        O  0.78514662  0.19761925  0.47451833    -0.71600
O154        O  0.75857409  0.17027221  0.43620458    -0.72500
O155        O  0.78548481  0.19744136  0.43625020    -0.61200
O156        O  0.75821936  0.17051582  0.47441742    -0.69600
O157        O  0.73695052  0.19161960  0.47407151    -0.69100
O158        O  0.76419539  0.21852005  0.43602402    -0.60400
O159        O  0.73732749  0.19139207  0.43589154    -0.72900
O160        O  0.76385760  0.21869455  0.47423074    -0.71700
Cu161      Cu  0.77261372  0.18321078  0.45535735     1.04600
Cu162      Cu  0.74983374  0.20580067  0.45504077     1.04300
C163        C  0.77862915  0.21240643  0.48039127     0.94600
C164        C  0.74380305  0.17657167  0.43005929     0.93800
C165        C  0.77906969  0.21219586  0.43016781     0.85900
C166        C  0.74333599  0.17688932  0.48021091     0.92200
N167        N  0.60823489  0.89879568  0.64773973    -0.25900
N168        N  0.60332224  0.91414056  0.65536195    -0.33800
C169        C  0.58995723  0.91086786  0.66716588     0.02400
C170        C  0.58638597  0.89263898  0.66689655     0.08500
C171        C  0.59812943  0.88533698  0.65448846    -0.04600
H172        H  0.58322336  0.92103908  0.67514919     0.09100
H173        H  0.59913718  0.87135215  0.65048943     0.10300
Cu174      Cu  0.61444312  0.93892302  0.64892029     0.44200
Cu175      Cu  0.62799684  0.89690139  0.62811932     0.42000
Cu176      Cu  0.64826982  0.93897600  0.61393859     0.43900
N177        N  0.62649822  0.96213098  0.63914301    -0.33300
N178        N  0.63888308  0.96213794  0.62633292    -0.27600
C179        C  0.64341885  0.97925316  0.62248329    -0.03700
C180        C  0.63336012  0.99054174  0.63336649     0.08600
C181        C  0.62279765  0.97924902  0.64378338     0.02400
H182        H  0.65301462  0.98316358  0.61221954     0.10000
H183        H  0.61285537  0.98315787  0.65370563     0.09100
N184        N  0.65487563  0.91416243  0.60304852    -0.34800
N185        N  0.64750987  0.89877644  0.60825047    -0.26900
C186        C  0.65446623  0.88526361  0.59838354    -0.02200
C187        C  0.66673421  0.89258047  0.58649006     0.06400
C188        C  0.66670626  0.91086884  0.58972197     0.04500
H189        H  0.65071711  0.87122746  0.59966768     0.09600
H190        H  0.67454505  0.92105507  0.58282159     0.08500
N191        N  0.64688887  0.10205488  0.60700021    -0.25900
N192        N  0.65421638  0.08657942  0.60203482    -0.33800
C193        C  0.66621388  0.08967017  0.58881587     0.02400
C194        C  0.66639585  0.10791117  0.58539161     0.08500
C195        C  0.65404568  0.11542829  0.59706076    -0.04600
H196        H  0.67407140  0.07937266  0.58212461     0.09100
H197        H  0.65039461  0.12950257  0.59815761     0.10300
Cu198      Cu  0.64749064  0.06185313  0.61301738     0.44200
Cu199      Cu  0.62723938  0.10425701  0.62672067     0.42000
Cu200      Cu  0.61349822  0.06203693  0.64739384     0.43900
N201        N  0.63825350  0.03868898  0.62549948    -0.33300
N202        N  0.62575381  0.03874363  0.63818551    -0.27600
C203        C  0.62229505  0.02166591  0.64317543    -0.03700
C204        C  0.63314512  0.01034762  0.63310272     0.08600
C205        C  0.64310216  0.02158329  0.62204905     0.02400
H206        H  0.61237306  0.01779488  0.65313998     0.10000
H207        H  0.65290732  0.01763866  0.61200592     0.09100
N208        N  0.60251175  0.08683800  0.65386331    -0.34800
N209        N  0.60748396  0.10224267  0.64636874    -0.26900
C210        C  0.59750512  0.11567617  0.65333572    -0.02200
C211        C  0.58579122  0.10828035  0.66573771     0.06400
C212        C  0.58924599  0.09004024  0.66578080     0.04500
H213        H  0.59859893  0.12970964  0.64951503     0.09600
H214        H  0.58253248  0.07981477  0.67372957     0.08500
N215        N  0.30354869  0.89832178  0.64670607    -0.25900
N216        N  0.30843058  0.91369091  0.65430075    -0.33800
C217        C  0.32162394  0.91042302  0.66628157     0.02400
C218        C  0.32509457  0.89217358  0.66616038     0.08500
C219        C  0.31349051  0.88485668  0.65364741    -0.04600
H220        H  0.32826288  0.92059931  0.67433566     0.09100
H221        H  0.31242757  0.87084710  0.64974926     0.10300
Cu222      Cu  0.29730975  0.93846469  0.64780987     0.44200
Cu223      Cu  0.28391792  0.89634472  0.62702640     0.42000
Cu224      Cu  0.26317448  0.93850568  0.61335802     0.43900
N225        N  0.28508834  0.96171088  0.63835899    -0.33300
N226        N  0.27259330  0.96175464  0.62567201    -0.27600
C227        C  0.26795382  0.97889297  0.62201826    -0.03700
C228        C  0.27803637  0.99014707  0.63293797     0.08600
C229        C  0.28873097  0.97880423  0.64314307     0.02400
H230        H  0.25822602  0.98284891  0.61190966     0.10000
H231        H  0.29871022  0.98266814  0.65303692     0.09100
N232        N  0.25679045  0.91366253  0.60229262    -0.34800
N233        N  0.26437964  0.89830983  0.60725594    -0.26900
C234        C  0.25756589  0.88482228  0.59726400    -0.02200
C235        C  0.24514355  0.89210366  0.58554178     0.06400
C236        C  0.24493362  0.91035326  0.58900008     0.04500
H237        H  0.26149527  0.87082302  0.59837118     0.09600
H238        H  0.23691479  0.92050496  0.58227462     0.08500
N239        N  0.30378130  0.10182365  0.64672428    -0.25900
N240        N  0.30848485  0.08648121  0.65450594    -0.33800
C241        C  0.32169112  0.08974121  0.66647128     0.02400
C242        C  0.32536895  0.10794593  0.66613806     0.08500
C243        C  0.31386370  0.11525623  0.65352703    -0.04600
H244        H  0.32822946  0.07957820  0.67463072     0.09100
H245        H  0.31297607  0.12923279  0.64945443     0.10300
Cu246      Cu  0.29730034  0.06167107  0.64819032     0.44200
Cu247      Cu  0.28423346  0.10384125  0.62694617     0.42000
Cu248      Cu  0.26367962  0.06159684  0.61330055     0.43900
N249        N  0.28522839  0.03838024  0.63855481    -0.33300
N250        N  0.27288430  0.03839314  0.62572378    -0.27600
C251        C  0.26819824  0.02129715  0.62198460    -0.03700
C252        C  0.27810528  0.00997540  0.63297400     0.08600
C253        C  0.28875281  0.02124903  0.64332715     0.02400
H254        H  0.25856213  0.01741919  0.61176154     0.10000
H255        H  0.29859400  0.01731073  0.65333192     0.09100
N256        N  0.25711652  0.08636976  0.60232277    -0.34800
N257        N  0.26459434  0.10178118  0.60726480    -0.26900
C258        C  0.25756732  0.11521822  0.59734050    -0.02200
C259        C  0.24513556  0.10781687  0.58570012     0.06400
C260        C  0.24513776  0.08957078  0.58912575     0.04500
H261        H  0.26136561  0.12925618  0.59842635     0.09600
H262        H  0.23718317  0.07934448  0.58244032     0.08500
O263        O  0.47480386  0.17155795  0.75719701    -0.71600
O264        O  0.43625650  0.19823863  0.78413956    -0.72500
O265        O  0.43654931  0.17132374  0.75704396    -0.61200
O266        O  0.47445110  0.19843919  0.78429913    -0.69600
O267        O  0.47443850  0.21970355  0.76317133    -0.69100
O268        O  0.43654514  0.19260796  0.73593947    -0.60400
O269        O  0.43627265  0.21949130  0.76300540    -0.72900
O270        O  0.47475861  0.19283553  0.73609029    -0.71700
Cu271      Cu  0.45551572  0.18412945  0.77141664     1.04600
Cu272      Cu  0.45550196  0.20690675  0.74880175     1.04300
C273        C  0.48082735  0.17805921  0.74245098     0.94600
C274        C  0.43026188  0.21304787  0.77777518     0.93800
C275        C  0.43059479  0.17775926  0.74225442     0.85900
C276        C  0.48036194  0.21330295  0.77798559     0.92200
O277        O  0.15356158  0.17058449  0.47476881    -0.71600
O278        O  0.12619275  0.19751503  0.43674975    -0.72500
O279        O  0.15345687  0.17076048  0.43654613    -0.61200
O280        O  0.12633108  0.19728852  0.47497826    -0.69600
O281        O  0.14733538  0.21867070  0.47497908    -0.69100
O282        O  0.17445683  0.19214302  0.43654737    -0.60400
O283        O  0.14719933  0.21888858  0.43676526    -0.72900
O284        O  0.17455507  0.19197759  0.47475970    -0.71700
Cu285      Cu  0.13914411  0.18327916  0.45575775     1.04600
Cu286      Cu  0.16163150  0.20617713  0.45576217     1.04300
C287        C  0.16830642  0.17711059  0.48073343     0.94600
C288        C  0.13243109  0.21240403  0.43080531     0.93800
C289        C  0.16817496  0.17731675  0.43052194     0.85900
C290        C  0.13262899  0.21209974  0.48101363     0.92200
N291        N  0.60702299  0.30815084  0.85458173    -0.25900
N292        N  0.60230961  0.30049578  0.86998323    -0.33800
C293        C  0.58901883  0.28858507  0.86687508     0.02400
C294        C  0.58529856  0.28881332  0.84869103     0.08500
C295        C  0.59686160  0.30130697  0.84123725    -0.04600
H296        H  0.58247263  0.28052439  0.87712149     0.09100
H297        H  0.59772626  0.30527866  0.82723012     0.10300
Cu298      Cu  0.61376584  0.30679647  0.89458835     0.44200
Cu299      Cu  0.62669160  0.32782661  0.85248014     0.42000
Cu300      Cu  0.64829561  0.34096250  0.89439161     0.43900
N301        N  0.62659151  0.31582156  0.91763242    -0.33300
N302        N  0.63926366  0.32834001  0.91754197    -0.27600
C303        C  0.64427356  0.33180088  0.93459117    -0.03700
C304        C  0.63422898  0.32095684  0.94593935     0.08600
C305        C  0.62318239  0.31096453  0.93475338     0.02400
H306        H  0.65414218  0.34182152  0.93842758     0.10000
H307        H  0.61307170  0.30124219  0.93874831     0.09100
N308        N  0.65429657  0.35219744  0.86960295    -0.34800
N309        N  0.64643420  0.34745806  0.85432410    -0.26900
C310        C  0.65319842  0.35751013  0.84083622    -0.02200
C311        C  0.66586209  0.36901449  0.84806693     0.06400
C312        C  0.66626464  0.36538171  0.86626492     0.04500
H313        H  0.64909245  0.35657834  0.82687771     0.09600
H314        H  0.67450889  0.37189824  0.87636687     0.08500
N315        N  0.64770732  0.34764401  0.05719412    -0.25900
N316        N  0.65538549  0.35237800  0.04180056    -0.33800
C317        C  0.66744153  0.36552516  0.04497909     0.02400
C318        C  0.66729602  0.36913973  0.06318847     0.08500
C319        C  0.65468609  0.35765998  0.07058386    -0.04600
H320        H  0.67558129  0.37202332  0.03476441     0.09100
H321        H  0.65076811  0.35671331  0.08460029     0.10300
Cu322      Cu  0.64906414  0.34118004  0.01705546     0.44200
Cu323      Cu  0.62793205  0.32803552  0.05941260     0.42000
Cu324      Cu  0.61471846  0.30699398  0.01747103     0.43900
N325        N  0.63970956  0.32858863  0.99401581    -0.33300
N326        N  0.62707502  0.31603601  0.99417066    -0.27600
C327        C  0.62344827  0.31108905  0.97713078    -0.03700
C328        C  0.63432615  0.32104630  0.96573130     0.08600
C329        C  0.64448467  0.33198281  0.97687325     0.02400
H330        H  0.61334368  0.30128692  0.97334169     0.10000
H331        H  0.65430624  0.34198046  0.97283786     0.09100
N332        N  0.60352774  0.30058847  0.04218384    -0.34800
N333        N  0.60828940  0.30826924  0.05754307    -0.26900
C334        C  0.59817159  0.30142010  0.07094833    -0.02200
C335        C  0.58659288  0.28889451  0.06357113     0.06400
C336        C  0.59026959  0.28865772  0.04537538     0.04500
H337        H  0.59904961  0.30543132  0.08493724     0.09600
H338        H  0.58367427  0.28061317  0.03516421     0.08500
O339        O  0.75711797  0.51958072  0.12653752    -0.71600
O340        O  0.78465068  0.48134149  0.15307970    -0.72500
O341        O  0.75755187  0.48132242  0.12616773    -0.61200
O342        O  0.78420918  0.51966743  0.15342316    -0.69600
O343        O  0.76306890  0.51916251  0.17466359    -0.69100
O344        O  0.73644308  0.48090219  0.14744199    -0.60400
O345        O  0.76349292  0.48091495  0.17430297    -0.72900
O346        O  0.73602759  0.51909053  0.14783213    -0.71700
Cu347      Cu  0.77164296  0.50049501  0.13904370     1.04600
Cu348      Cu  0.74902380  0.50000211  0.16180785     1.04300
C349        C  0.74229189  0.52533436  0.13308682     0.94600
C350        C  0.77830444  0.47508852  0.16780047     0.93800
C351        C  0.74284889  0.47510009  0.13258177     0.85900
C352        C  0.77773732  0.52546443  0.16826461     0.92200
N353        N  0.60743491  0.69122965  0.85365628    -0.25900
N354        N  0.60281743  0.69898581  0.86902677    -0.33800
C355        C  0.58974354  0.71111789  0.86585800     0.02400
C356        C  0.58603793  0.71093486  0.84766699     0.08500
C357        C  0.59740971  0.69823021  0.84027305    -0.04600
H358        H  0.58327130  0.71924688  0.87608432     0.09100
H359        H  0.59820297  0.69419579  0.82628470     0.10300
Cu360      Cu  0.61389069  0.69233570  0.89373379     0.44200
Cu361      Cu  0.62679619  0.67119446  0.85169168     0.42000
Cu362      Cu  0.64788114  0.65767060  0.89377930     0.43900
N363        N  0.62599542  0.68273513  0.91694863    -0.33300
N364        N  0.63844870  0.67000483  0.91697978    -0.27600
C365        C  0.64311647  0.66635339  0.93410161    -0.03700
C366        C  0.63309019  0.67731001  0.94535879     0.08600
C367        C  0.62239238  0.68753791  0.93404196     0.02400
H368        H  0.65285054  0.65624351  0.93804105     0.10000
H369        H  0.61248187  0.69749998  0.93791900     0.09100
N370        N  0.65435757  0.64678628  0.86890905    -0.34800
N371        N  0.64664277  0.65163381  0.85358133    -0.26900
C372        C  0.65361480  0.64175344  0.84007940    -0.02200
C373        C  0.66626547  0.63024358  0.84733733     0.06400
C374        C  0.66643804  0.63370285  0.86557809     0.04500
H375        H  0.64962612  0.64277161  0.82609199     0.09600
H376        H  0.67456005  0.62708908  0.87572031     0.08500
N377        N  0.64640935  0.65187171  0.05688285    -0.25900
N378        N  0.65422634  0.64697110  0.04162289    -0.33800
C379        C  0.66604554  0.63367110  0.04504348     0.02400
C380        C  0.66557403  0.63013644  0.06327232     0.08500
C381        C  0.65304338  0.64182453  0.07042506    -0.04600
H382        H  0.67421432  0.62699327  0.03497936     0.09100
H383        H  0.64892744  0.64287870  0.08437565     0.10300
Cu384      Cu  0.64817602  0.65809740  0.01675918     0.44200
Cu385      Cu  0.62685132  0.67168427  0.05870730     0.42000
Cu386      Cu  0.61403355  0.69281673  0.01676582     0.43900
N387        N  0.63867399  0.67039225  0.99358382    -0.33300
N388        N  0.62618801  0.68309608  0.99357734    -0.27600
C389        C  0.62249120  0.68773302  0.97645336    -0.03700
C390        C  0.63315389  0.67742271  0.96517110     0.08600
C391        C  0.64325971  0.66659571  0.97647294     0.02400
H392        H  0.61251509  0.69761225  0.97253266     0.10000
H393        H  0.65296744  0.65644472  0.97257497     0.09100
N394        N  0.60275997  0.69936255  0.04145205    -0.34800
N395        N  0.60740019  0.69159555  0.05681168    -0.26900
C396        C  0.59731667  0.69847875  0.07021177    -0.02200
C397        C  0.58587219  0.71113064  0.06284737     0.06400
C398        C  0.58959566  0.71139559  0.04464846     0.04500
H399        H  0.59813693  0.69441398  0.08419413     0.09600
H400        H  0.58309848  0.71953608  0.03444502     0.08500
N401        N  0.30353823  0.69120730  0.85370305    -0.25900
N402        N  0.30859101  0.69848019  0.86916953    -0.33800
C403        C  0.32210265  0.71015678  0.86611794     0.02400
C404        C  0.32565126  0.71019005  0.84790116     0.08500
C405        C  0.31373048  0.69808095  0.84036307    -0.04600
H406        H  0.32890922  0.71789121  0.87642976     0.09100
H407        H  0.31263232  0.69440639  0.82629730     0.10300
Cu408      Cu  0.29738559  0.69200818  0.89383427     0.44200
Cu409      Cu  0.28336505  0.67196736  0.85158482     0.42000
Cu410      Cu  0.26229757  0.65861485  0.89387652     0.43900
N411        N  0.28488801  0.68297666  0.91703481    -0.33300
N412        N  0.27198288  0.67070204  0.91709136    -0.27600
C413        C  0.26721634  0.66721550  0.93422692    -0.03700
C414        C  0.27766431  0.67780845  0.94545062     0.08600
C415        C  0.28869358  0.68765522  0.93410762     0.02400
H416        H  0.25717836  0.65740973  0.93819991     0.10000
H417        H  0.29900977  0.69721184  0.93795227     0.09100
N418        N  0.25578060  0.64766876  0.86905304    -0.34800
N419        N  0.26341498  0.65248802  0.85366333    -0.26900
C420        C  0.25647341  0.64246176  0.84025530    -0.02200
C421        C  0.24394322  0.63088030  0.84764043     0.06400
C422        C  0.24379785  0.63445822  0.86585624     0.04500
H423        H  0.26044341  0.64339016  0.82625217     0.09600
H424        H  0.23578314  0.62781873  0.87607928     0.08500
N425        N  0.30373663  0.69168524  0.05697120    -0.25900
N426        N  0.30873527  0.69904932  0.04151396    -0.33800
C427        C  0.32215153  0.71082738  0.04461348     0.02400
C428        C  0.32569033  0.71081452  0.06284141     0.08500
C429        C  0.31385700  0.69858187  0.07033357    -0.04600
H430        H  0.32892745  0.71864064  0.03432515     0.09100
H431        H  0.31278434  0.69481898  0.08438360     0.10300
Cu432      Cu  0.29763125  0.69244809  0.01678467     0.44200
Cu433      Cu  0.28379341  0.67224402  0.05910653     0.42000
Cu434      Cu  0.26299415  0.65860498  0.01694301     0.43900
N435        N  0.28521481  0.68313915  0.99359895    -0.33300
N436        N  0.27243778  0.67073081  0.99367824    -0.27600
C437        C  0.26755510  0.66715581  0.97660851    -0.03700
C438        C  0.27779077  0.67781923  0.96525461     0.08600
C439        C  0.28883427  0.68780199  0.97646389     0.02400
H440        H  0.25756539  0.65725624  0.97277082     0.10000
H441        H  0.29899058  0.69748302  0.97248385     0.09100
N442        N  0.25655559  0.64760257  0.04174216    -0.34800
N443        N  0.26411657  0.65253502  0.05711296    -0.26900
C444        C  0.25725688  0.64248711  0.07055687    -0.02200
C445        C  0.24485219  0.63077712  0.06320753     0.06400
C446        C  0.24469232  0.63429303  0.04497916     0.04500
H447        H  0.26117317  0.64351484  0.08456270     0.09600
H448        H  0.23673143  0.62757208  0.03478341     0.08500
O449        O  0.47491974  0.82883613  0.15410150    -0.71600
O450        O  0.43642718  0.80228270  0.12692566    -0.72500
O451        O  0.43665742  0.82885373  0.15441488    -0.61200
O452        O  0.47466330  0.80229842  0.12661925    -0.69600
O453        O  0.47476790  0.78077092  0.14747241    -0.69100
O454        O  0.43680992  0.80728966  0.17523033    -0.60400
O455        O  0.43659094  0.78075032  0.14776949    -0.72900
O456        O  0.47502322  0.80726384  0.17490685    -0.71700
Cu457      Cu  0.45565381  0.81634413  0.13977820     1.04600
Cu458      Cu  0.45579705  0.79326753  0.16208244     1.04300
C459        C  0.48102990  0.82214341  0.16871850     0.94600
C460        C  0.43053010  0.78734158  0.13309145     0.93800
C461        C  0.43079294  0.82220554  0.16915688     0.85900
C462        C  0.48065345  0.78737903  0.13272512     0.92200
N463        N  0.26427008  0.34817172  0.85428547    -0.25900
N464        N  0.25673748  0.35290971  0.86973623    -0.33800
C465        C  0.24461495  0.36600868  0.86664613     0.02400
C466        C  0.24457551  0.36960117  0.84842981     0.08500
C467        C  0.25713519  0.35814277  0.84093366    -0.04600
H468        H  0.23660935  0.37254077  0.87693372     0.09100
H469        H  0.26095124  0.35722094  0.82688831     0.10300
Cu470      Cu  0.26352415  0.34188432  0.89443759     0.44200
Cu471      Cu  0.28410788  0.32865768  0.85209474     0.42000
Cu472      Cu  0.29782073  0.30768874  0.89423294     0.43900
N473        N  0.27305722  0.32964960  0.91761984    -0.33300
N474        N  0.28568772  0.31709737  0.91758977    -0.27600
C475        C  0.28930087  0.31232569  0.93470368    -0.03700
C476        C  0.27841097  0.32238803  0.94601221     0.08600
C477        C  0.26827557  0.33321062  0.93472803     0.02400
H478        H  0.29932618  0.30248930  0.93860585     0.10000
H479        H  0.25838298  0.34317636  0.93863997     0.09100
N480        N  0.30851668  0.30109563  0.86927416    -0.34800
N481        N  0.30356567  0.30873486  0.85393757    -0.26900
C482        C  0.31335029  0.30170413  0.84039361    -0.02200
C483        C  0.32492009  0.28909953  0.84762989     0.06400
C484        C  0.32158695  0.28901006  0.86590130     0.04500
H485        H  0.31225546  0.30565272  0.82639695     0.09600
H486        H  0.32829455  0.28095617  0.87603691     0.08500
N487        N  0.30368132  0.30878486  0.05776458    -0.25900
N488        N  0.30847892  0.30108438  0.04241653    -0.33800
C489        C  0.32163768  0.28906554  0.04568211     0.02400
C490        C  0.32519864  0.28926489  0.06390499     0.08500
C491        C  0.31366718  0.30186466  0.07121631    -0.04600
H492        H  0.32824141  0.28097887  0.03550628     0.09100
H493        H  0.31272220  0.30587129  0.08520333     0.10300
Cu494      Cu  0.29745775  0.30754584  0.01760404     0.44200
Cu495      Cu  0.28412914  0.32863258  0.05970213     0.42000
Cu496      Cu  0.26307706  0.34165644  0.01742348     0.43900
N497        N  0.28526973  0.31686580  0.99428790    -0.33300
N498        N  0.27260696  0.32938494  0.99422741    -0.27600
C499        C  0.26797713  0.33302546  0.97709110    -0.03700
C500        C  0.27825814  0.32229281  0.96584015     0.08600
C501        C  0.28905305  0.31219221  0.97719055     0.02400
H502        H  0.25815078  0.34303966  0.97313533     0.10000
H503        H  0.29919371  0.30245829  0.97332993     0.09100
N504        N  0.25670414  0.35294724  0.04214157    -0.34800
N505        N  0.26437281  0.34826490  0.05754399    -0.26900
C506        C  0.25749232  0.35842418  0.07088765    -0.02200
C507        C  0.24496523  0.36995787  0.06344554     0.06400
C508        C  0.24475938  0.36620669  0.04526257     0.04500
H509        H  0.26146425  0.35758224  0.08489169     0.09600
H510        H  0.23670003  0.37273377  0.03501526     0.08500
N511        N  0.85368869  0.30913719  0.60707447    -0.25900
N512        N  0.86910073  0.30153787  0.60232811    -0.33800
C513        C  0.86594833  0.28944303  0.58921684     0.02400
C514        C  0.84772291  0.28948527  0.58561990     0.08500
C515        C  0.84029570  0.30207605  0.59710044    -0.04600
H516        H  0.87619810  0.28138786  0.58268673     0.09100
H517        H  0.82626914  0.30595898  0.59803429     0.10300
Cu518      Cu  0.89380741  0.30824298  0.61345512     0.44200
Cu519      Cu  0.85175281  0.32900241  0.62659457     0.42000
Cu520      Cu  0.89421933  0.34295676  0.64713180     0.43900
N521        N  0.91715758  0.31747386  0.62565259    -0.33300
N522        N  0.91728624  0.33025327  0.63804183    -0.27600
C523        C  0.93441625  0.33374347  0.64277938    -0.03700
C524        C  0.94560074  0.32264290  0.63284478     0.08600
C525        C  0.93422260  0.31247528  0.62214689     0.02400
H526        H  0.93841517  0.34391558  0.65241915     0.10000
H527        H  0.93804813  0.30249792  0.61223587     0.09100
N528        N  0.86937074  0.35373540  0.65366991    -0.34800
N529        N  0.85394716  0.34867311  0.64628248    -0.26900
C530        C  0.84048081  0.35844649  0.65345977    -0.02200
C531        C  0.84786983  0.37011096  0.66587340     0.06400
C532        C  0.86614157  0.36686008  0.66571682     0.04500
H533        H  0.82641976  0.35722720  0.64979108     0.09600
H534        H  0.87636275  0.37358283  0.67364634     0.08500
N535        N  0.05724123  0.34813725  0.64656819    -0.25900
N536        N  0.04180560  0.35328304  0.65386232    -0.33800
C537        C  0.04501421  0.36656675  0.66574969     0.02400
C538        C  0.06329672  0.36985007  0.66587986     0.08500
C539        C  0.07070131  0.35801423  0.65362356    -0.04600
H540        H  0.03476551  0.37344894  0.67350981     0.09100
H541        H  0.08475535  0.35681616  0.64990905     0.10300
Cu542      Cu  0.01700750  0.34249999  0.64701279     0.44200
Cu543      Cu  0.05922685  0.32840849  0.62693063     0.42000
Cu544      Cu  0.01697889  0.30774798  0.61321448     0.43900
N545        N  0.99380922  0.32999545  0.63786668    -0.33300
N546        N  0.99378347  0.31720678  0.62548231    -0.27600
C547        C  0.97666869  0.31233474  0.62204842    -0.03700
C548        C  0.96541108  0.32258870  0.63278812     0.08600
C549        C  0.97671951  0.33361533  0.64266639     0.02400
H550        H  0.97273145  0.30236683  0.61217280     0.10000
H551        H  0.97283353  0.34380323  0.65233672     0.09100
N552        N  0.04178727  0.30130192  0.60222172    -0.34800
N553        N  0.05718665  0.30881143  0.60716840    -0.26900
C554        C  0.07064012  0.30180612  0.59724059    -0.02200
C555        C  0.06326103  0.28935925  0.58559571     0.06400
C556        C  0.04501392  0.28933054  0.58902609     0.04500
H557        H  0.08468422  0.30557417  0.59837840     0.09600
H558        H  0.03480980  0.28130477  0.58239092     0.08500
O559        O  0.17503147  0.48054996  0.76360244    -0.71600
O560        O  0.14856568  0.51866947  0.73593547    -0.72500
O561        O  0.17520318  0.51877780  0.76325163    -0.61200
O562        O  0.14841615  0.48046309  0.73625231    -0.69600
O563        O  0.12692532  0.48066981  0.75714256    -0.69100
O564        O  0.15373901  0.51904232  0.78416887    -0.60400
O565        O  0.12708453  0.51891534  0.75683427    -0.72900
O566        O  0.15356936  0.48078851  0.78452157    -0.71700
Cu567      Cu  0.16256464  0.49960181  0.74902646     1.04600
Cu568      Cu  0.13957129  0.49985954  0.77141235     1.04300
C569        C  0.16841917  0.47468693  0.77836005     0.94600
C570        C  0.13370693  0.52477060  0.74207715     0.93800
C571        C  0.16862899  0.52494536  0.77788999     0.85900
C572        C  0.13349874  0.47457576  0.74246694     0.92200
N573        N  0.85394188  0.69110186  0.60831156    -0.25900
N574        N  0.86931877  0.69866771  0.60336003    -0.33800
C575        C  0.86605923  0.71069652  0.59020458     0.02400
C576        C  0.84780356  0.71065740  0.58679930     0.08500
C577        C  0.84046779  0.69812918  0.59842281    -0.04600
H578        H  0.87625731  0.71870229  0.58351532     0.09100
H579        H  0.82644483  0.69426502  0.59951306     0.10300
Cu580      Cu  0.89413790  0.69203199  0.61421724     0.44200
Cu581      Cu  0.85204378  0.67131658  0.62798556     0.42000
Cu582      Cu  0.89430330  0.65738515  0.64831524     0.43900
N583        N  0.91740186  0.68231694  0.62615325    -0.33300
N584        N  0.91748155  0.66959545  0.63862634    -0.27600
C585        C  0.93463627  0.66576901  0.64303832    -0.03700
C586        C  0.94586114  0.67659845  0.63281836     0.08600
C587        C  0.93449356  0.68694225  0.62228874     0.02400
H588        H  0.93861410  0.65560079  0.65270004     0.10000
H589        H  0.93833129  0.69682721  0.61227583     0.09100
N590        N  0.86948623  0.64650365  0.65506321    -0.34800
N591        N  0.85406743  0.65155382  0.64766777    -0.26900
C592        C  0.84062009  0.64159865  0.65467813    -0.02200
C593        C  0.84800808  0.62980936  0.66700398     0.06400
C594        C  0.86627358  0.63320398  0.66695780     0.04500
H595        H  0.82658113  0.64272272  0.65089863     0.09600
H596        H  0.87651118  0.62638875  0.67478858     0.08500
N597        N  0.05760023  0.65092988  0.64538949    -0.25900
N598        N  0.04227558  0.64589596  0.65300210    -0.33800
C599        C  0.04562477  0.63257617  0.66482502     0.02400
C600        C  0.06388281  0.62916142  0.66458761     0.08500
C601        C  0.07112601  0.64094648  0.65216790    -0.04600
H602        H  0.03550144  0.62585300  0.67289646     0.09100
H603        H  0.08513314  0.64215319  0.64827776     0.10300
Cu604      Cu  0.01745101  0.65704807  0.64681846     0.44200
Cu605      Cu  0.05938667  0.67097255  0.62603657     0.42000
Cu606      Cu  0.01713286  0.69198650  0.61308600     0.43900
N607        N  0.99413066  0.66929738  0.63760206    -0.33300
N608        N  0.99401475  0.68211510  0.62522975    -0.27600
C609        C  0.97686678  0.68684857  0.62179124    -0.03700
C610        C  0.96567481  0.67649183  0.63252092     0.08600
C611        C  0.97705798  0.66551775  0.64237996     0.02400
H612        H  0.97286846  0.69688801  0.61200394     0.10000
H613        H  0.97324026  0.65533859  0.65210125     0.09100
N614        N  0.04188091  0.69870864  0.60206416    -0.34800
N615        N  0.05728198  0.69104015  0.60674450    -0.26900
C616        C  0.07067293  0.69808263  0.59674865    -0.02200
C617        C  0.06326448  0.71071957  0.58532235     0.06400
C618        C  0.04504977  0.71082777  0.58896473     0.04500
H619        H  0.08468108  0.69411808  0.59760175     0.09600
H620        H  0.03481407  0.71890989  0.58244691     0.08500
O621        O  0.14722784  0.78160325  0.43637612    -0.71600
O622        O  0.17430992  0.80873988  0.47427790    -0.70100
O623        O  0.14728155  0.78184787  0.47455873    -0.61200
O624        O  0.17423417  0.80852141  0.43609254    -0.69600
O625        O  0.15311137  0.82976982  0.43600386    -0.69100
O626        O  0.12610890  0.80304523  0.47451064    -0.60400
O627        O  0.15320883  0.83001026  0.47427058    -0.72900
O628        O  0.12605645  0.80280447  0.43623693    -0.71700
Cu629      Cu  0.16150195  0.79443692  0.45533104     1.04600
Cu630      Cu  0.13886224  0.81717023  0.45525149     1.04300
C631        C  0.13245056  0.78797109  0.43034051     0.94600
C632        C  0.16799683  0.82356832  0.48023864     0.93800
C633        C  0.13251347  0.78827876  0.48057049     0.85900
C634        C  0.16786826  0.82328746  0.43000791     0.92200
N635        N  0.85376307  0.65092462  0.26572456    -0.25900
N636        N  0.86912646  0.64589234  0.25819497    -0.33800
C637        C  0.86585956  0.63245794  0.24649479     0.02400
C638        C  0.84761821  0.62896446  0.24672963     0.08500
C639        C  0.84029723  0.64082639  0.25900490    -0.04600
H640        H  0.87602193  0.62574230  0.23847875     0.09100
H641        H  0.82627141  0.64202173  0.26282474     0.10300
Cu642      Cu  0.89390742  0.65716120  0.26426959     0.44200
Cu643      Cu  0.85176724  0.67099801  0.28501302     0.42000
Cu644      Cu  0.89398420  0.69152548  0.29843708     0.43900
N645        N  0.91714568  0.66943437  0.27359511    -0.33300
N646        N  0.91716519  0.68203317  0.28617179    -0.27600
C647        C  0.93427914  0.68672737  0.28980968    -0.03700
C648        C  0.94554953  0.67656935  0.27899707     0.08600
C649        C  0.93425088  0.66576250  0.26886898     0.02400
H650        H  0.93820086  0.69655156  0.29983417     0.10000
H651        H  0.93814814  0.65571033  0.25906163     0.09100
N652        N  0.86930336  0.69802101  0.30969015    -0.34800
N653        N  0.85386724  0.69053969  0.30482904    -0.26900
C654        C  0.84050231  0.69744758  0.31494553    -0.02200
C655        C  0.84797528  0.70981198  0.32662630     0.06400
C656        C  0.86619338  0.70988674  0.32301440     0.04500
H657        H  0.82645710  0.69364759  0.31393369     0.09600
H658        H  0.87645857  0.71784689  0.32963369     0.08500
N659        N  0.05700959  0.69134842  0.30410703    -0.25900
N660        N  0.04156704  0.69864392  0.30921869    -0.33800
C661        C  0.04475570  0.71056568  0.32247240     0.02400
C662        C  0.06303323  0.71071015  0.32575631     0.08500
C663        C  0.07045526  0.69842899  0.31397040    -0.04600
H664        H  0.03450684  0.71838036  0.32929150     0.09100
H665        H  0.08451772  0.69476171  0.31274957     0.10300
Cu666      Cu  0.01682340  0.69178684  0.29836864     0.44200
Cu667      Cu  0.05907870  0.67177800  0.28436549     0.42000
Cu668      Cu  0.01706948  0.65754767  0.26389758     0.43900
N669        N  0.99372374  0.68214931  0.28610409    -0.33300
N670        N  0.99378516  0.66963129  0.27344247    -0.27600
C671        C  0.97668326  0.66591620  0.26873746    -0.03700
C672        C  0.96535539  0.67660721  0.27896721     0.08600
C673        C  0.97659935  0.68674517  0.28981046     0.02400
H674        H  0.97280857  0.65592365  0.25886227     0.10000
H675        H  0.97265529  0.69649605  0.29989912     0.09100
N676        N  0.04196067  0.64665027  0.25750165    -0.34800
N677        N  0.05729611  0.65184296  0.26496336    -0.26900
C678        C  0.07086220  0.64196053  0.25812779    -0.02200
C679        C  0.06363713  0.63006738  0.24583335     0.06400
C680        C  0.04534759  0.63331447  0.24572077     0.04500
H681        H  0.08487811  0.64327583  0.26193416     0.09600
H682        H  0.03522760  0.62644713  0.23778647     0.08500
N683        N  0.85422682  0.30933531  0.30369317    -0.25900
N684        N  0.86959799  0.30162544  0.30839549    -0.33800
C685        C  0.86638791  0.28956304  0.32154444     0.02400
C686        C  0.84817044  0.28974355  0.32520523     0.08500
C687        C  0.84081022  0.30238086  0.31373147    -0.04600
H688        H  0.87659010  0.28142323  0.32804276     0.09100
H689        H  0.82680637  0.30634930  0.31282518     0.10300
Cu690      Cu  0.89432708  0.30814202  0.29714288     0.44200
Cu691      Cu  0.85229856  0.32915650  0.28408748     0.42000
Cu692      Cu  0.89445404  0.34239960  0.26271710     0.43900
N693        N  0.91759849  0.31752001  0.28483887    -0.33300
N694        N  0.91765506  0.33009926  0.27222175    -0.27600
C695        C  0.93479226  0.33368639  0.26751156    -0.03700
C696        C  0.94604236  0.32284265  0.27767428     0.08600
C697        C  0.93469561  0.31274739  0.28849575     0.02400
H698        H  0.93874924  0.34369546  0.25766960     0.10000
H699        H  0.93855986  0.30292246  0.29855068     0.09100
N700        N  0.86959660  0.35346390  0.25641290    -0.34800
N701        N  0.85426505  0.34870450  0.26420303    -0.26900
C702        C  0.84078390  0.35863882  0.25725703    -0.02200
C703        C  0.84805291  0.37010318  0.24455305     0.06400
C704        C  0.86628344  0.36654877  0.24431709     0.04500
H705        H  0.82679098  0.35764732  0.26125836     0.09600
H706        H  0.87642325  0.37305319  0.23608904     0.08500
N707        N  0.05756028  0.30822112  0.30332489    -0.25900
N708        N  0.04213823  0.30055570  0.30796474    -0.33800
C709        C  0.04523234  0.28846846  0.32110885     0.02400
C710        C  0.06342666  0.28857485  0.32484416     0.08500
C711        C  0.07090140  0.30120233  0.31340744    -0.04600
H712        H  0.03495208  0.28041604  0.32761186     0.09100
H713        H  0.08491310  0.30518000  0.31261645     0.10300
Cu714      Cu  0.01745522  0.30730080  0.29680548     0.44200
Cu715      Cu  0.05957687  0.32824961  0.28391466     0.42000
Cu716      Cu  0.01756013  0.34221240  0.26292655     0.43900
N717        N  0.99427270  0.31709073  0.28469564    -0.33300
N718        N  0.99431650  0.32985332  0.27226213    -0.27600
C719        C  0.97721199  0.33363856  0.26762591    -0.03700
C720        C  0.96587251  0.32275418  0.27765881     0.08600
C721        C  0.97713449  0.31241818  0.28832361     0.02400
H722        H  0.97333950  0.34382812  0.25794434     0.10000
H723        H  0.97318788  0.30248304  0.29824409     0.09100
N724        N  0.04245634  0.35325940  0.25678997    -0.34800
N725        N  0.05775568  0.34823073  0.26444717    -0.26900
C726        C  0.07131012  0.35818403  0.25765085    -0.02200
C727        C  0.06411841  0.36992979  0.24517819     0.06400
C728        C  0.04585846  0.36653664  0.24492763     0.04500
H729        H  0.08530228  0.35699792  0.26158128     0.09600
H730        H  0.03576438  0.37326098  0.23683569     0.08500
O731        O  0.17547389  0.51945383  0.14827506    -0.71600
O732        O  0.14838295  0.48127425  0.17514075    -0.72500
O733        O  0.17531836  0.48125882  0.14810981    -0.61200
O734        O  0.14854140  0.51947414  0.17527119    -0.69600
O735        O  0.12729624  0.51964557  0.15415195    -0.69100
O736        O  0.15412069  0.48140323  0.12694401    -0.60400
O737        O  0.12714618  0.48139206  0.15401037    -0.72900
O738        O  0.15426550  0.51965400  0.12711533    -0.71700
Cu739      Cu  0.16267371  0.50035606  0.16244258     1.04600
Cu740      Cu  0.13994902  0.50052754  0.13980081     1.04300
C741        C  0.16908418  0.52555900  0.13353359     0.94600
C742        C  0.13356242  0.47533890  0.16877026     0.93800
C743        C  0.16890392  0.47534277  0.13330209     0.85900
C744        C  0.13376825  0.52556876  0.16893586     0.92200
C745        C  0.09013442  0.40861777  0.21610434     0.18400
C746        C  0.08398314  0.42642500  0.21725335    -0.10700
C747        C  0.09258432  0.44003159  0.20746170    -0.11600
C748        C  0.10736158  0.43587013  0.19648259     0.20000
C749        C  0.11350862  0.41806163  0.19530982    -0.13600
C750        C  0.10490439  0.40444950  0.20510604    -0.11900
C751        C  0.11630863  0.44988044  0.18654941     0.00900
C752        C  0.12402685  0.46156847  0.17835159    -0.31900
C753        C  0.08127403  0.39467892  0.22623575     0.02300
C754        C  0.07359061  0.38325575  0.23484622    -0.33600
H755        H  0.07257076  0.42978052  0.22572355     0.13400
H756        H  0.08774790  0.45376856  0.20847170     0.13200
H757        H  0.12494578  0.41472080  0.18686679     0.13000
H758        H  0.10976329  0.39071855  0.20412835     0.12100
C759        C  0.10749862  0.56490211  0.19675873     0.18400
C760        C  0.09014167  0.56182554  0.20351921    -0.10700
C761        C  0.08136062  0.57523970  0.21339436    -0.11600
C762        C  0.08990781  0.59177223  0.21654580     0.20000
C763        C  0.10724569  0.59487767  0.20973532    -0.13600
C764        C  0.11603014  0.58145822  0.19985477    -0.11900
C765        C  0.08089407  0.60547898  0.22682945     0.00900
C766        C  0.07313045  0.61678347  0.23550020    -0.31900
C767        C  0.11660182  0.55102208  0.18679404     0.02300
C768        C  0.12433652  0.53936400  0.17857945    -0.33600
H769        H  0.08343767  0.54906352  0.20120376     0.13400
H770        H  0.06795157  0.57271321  0.21860467     0.13200
H771        H  0.11396685  0.60762168  0.21209999     0.13000
H772        H  0.12946006  0.58395961  0.19468669     0.12100
C773        C  0.08899358  0.74007264  0.36415985     0.18400
C774        C  0.07948752  0.75316490  0.37387530    -0.10700
C775        C  0.08817474  0.76306013  0.38733162    -0.11600
C776        C  0.10638943  0.75988514  0.39110866     0.20000
C777        C  0.11590817  0.74681651  0.38136981    -0.13600
C778        C  0.10721998  0.73691988  0.36791328    -0.11900
C779        C  0.11530013  0.76997596  0.40500494     0.00900
C780        C  0.12295469  0.77829670  0.41662916    -0.31900
C781        C  0.08000531  0.72979570  0.35044914     0.02300
C782        C  0.07233616  0.72112064  0.33909547    -0.33600
H783        H  0.06538168  0.75568506  0.37107491     0.13400
H784        H  0.08070477  0.77313787  0.39479630     0.13200
H785        H  0.13000275  0.74426633  0.38420096     0.13000
H786        H  0.11467820  0.72681005  0.36047882     0.12100
C787        C  0.10629738  0.76028802  0.51987218     0.18400
C788        C  0.11349856  0.75962098  0.53730693    -0.10700
C789        C  0.10484486  0.74958415  0.55071134    -0.11600
C790        C  0.08896887  0.74018315  0.54671720     0.20000
C791        C  0.08176416  0.74086340  0.52928641    -0.13600
C792        C  0.09041648  0.75089723  0.51588448    -0.11900
C793        C  0.08006908  0.72984082  0.56047502     0.00900
C794        C  0.07248622  0.72114079  0.57189603    -0.31900
C795        C  0.11529277  0.77044121  0.50603735     0.02300
C796        C  0.12300733  0.77872682  0.49439929    -0.33600
H797        H  0.12579224  0.76681585  0.54051463     0.13400
H798        H  0.11052359  0.74913750  0.56415105     0.13200
H799        H  0.06949331  0.73363513  0.52606482     0.13000
H800        H  0.08475952  0.75130671  0.50243432     0.12100
C801        C  0.09002440  0.59077066  0.69392776     0.18400
C802        C  0.08383842  0.57294682  0.69323931    -0.10700
C803        C  0.09257136  0.55953163  0.70316968    -0.11600
C804        C  0.10752140  0.56389421  0.71382697     0.20000
C805        C  0.11369263  0.58172447  0.71454675    -0.13600
C806        C  0.10495682  0.59514417  0.70461256    -0.11900
C807        C  0.11659993  0.55006489  0.72390455     0.00900
C808        C  0.12432982  0.53848195  0.73224272    -0.31900
C809        C  0.08104542  0.60452380  0.68365202     0.02300
C810        C  0.07332954  0.61586006  0.67496453    -0.33600
H811        H  0.07229953  0.56942891  0.68501942     0.13400
H812        H  0.08770270  0.54578151  0.70251378     0.13200
H813        H  0.12525250  0.58523070  0.72274167     0.13000
H814        H  0.10984376  0.60888902  0.70523889     0.12100
C815        C  0.08936643  0.40864478  0.69471195     0.18400
C816        C  0.10407294  0.40419160  0.70566941    -0.10700
C817        C  0.11291196  0.41761174  0.71549226    -0.11600
C818        C  0.10706933  0.43552641  0.71439123     0.20000
C819        C  0.09237215  0.43998560  0.70342264    -0.13600
C820        C  0.08353203  0.42656430  0.69359971    -0.11900
C821        C  0.11620028  0.44932470  0.72444662     0.00900
C822        C  0.12399220  0.46086847  0.73276906    -0.31900
C823        C  0.08027077  0.39484500  0.68461900     0.02300
C824        C  0.07258845  0.38335587  0.67611592    -0.33600
H825        H  0.10869143  0.39037471  0.70661260     0.13400
H826        H  0.12427962  0.41403353  0.72392250     0.13200
H827        H  0.08776661  0.45380634  0.70246637     0.13000
H828        H  0.07217502  0.43014546  0.68515592     0.12100
C829        C  0.19651602  0.43604894  0.10672392     0.18400
C830        C  0.19753954  0.41875546  0.11423254    -0.10700
C831        C  0.20725574  0.40522214  0.10544305    -0.11600
C832        C  0.21598723  0.40893802  0.08911803     0.20000
C833        C  0.21493385  0.42622518  0.08159031    -0.13600
C834        C  0.20521681  0.43976062  0.09038136    -0.11900
C835        C  0.22610526  0.39506033  0.08015344     0.00900
C836        C  0.23467421  0.38352361  0.07260596    -0.31900
C837        C  0.18664307  0.44998789  0.11585126     0.02300
C838        C  0.17847163  0.46160953  0.12369331    -0.33600
H839        H  0.19086863  0.41575586  0.12687411     0.13400
H840        H  0.20799469  0.39190124  0.11137949     0.13200
H841        H  0.22164560  0.42923774  0.06897346     0.13000
H842        H  0.20451745  0.45309644  0.08447288     0.12100
C843        C  0.21509032  0.40824149  0.82287641     0.18400
C844        C  0.20707636  0.40474864  0.80615535    -0.10700
C845        C  0.19732513  0.41825943  0.79737065    -0.11600
C846        C  0.19555733  0.43530298  0.80528128     0.20000
C847        C  0.20349231  0.43876957  0.82204673    -0.13600
C848        C  0.21324340  0.42525683  0.83083287    -0.11900
C849        C  0.18581273  0.44927910  0.79607872     0.00900
C850        C  0.17781084  0.46094239  0.78812464    -0.31900
C851        C  0.22534755  0.39444096  0.83178266     0.02300
C852        C  0.23407418  0.38300418  0.83929036    -0.33600
H853        H  0.20843408  0.39163455  0.79989183     0.13400
H854        H  0.19124844  0.41545429  0.78439967     0.13200
H855        H  0.20221260  0.45191267  0.82826551     0.13000
H856        H  0.21939796  0.42808881  0.84376147     0.12100
C857        C  0.19676562  0.56490109  0.10713591     0.18400
C858        C  0.19946389  0.58162214  0.11545677    -0.10700
C859        C  0.20912881  0.59512686  0.10655461    -0.11600
C860        C  0.21611955  0.59193928  0.08931460     0.20000
C861        C  0.21341131  0.57522002  0.08099329    -0.13600
C862        C  0.20374739  0.56171683  0.08989433    -0.11900
C863        C  0.22614072  0.60577432  0.08019943     0.00900
C864        C  0.23463555  0.61726468  0.07250621    -0.31900
C865        C  0.18689882  0.55099858  0.11630622     0.02300
C866        C  0.17870920  0.53934473  0.12407651    -0.33600
H867        H  0.19412294  0.58419914  0.12879914     0.13400
H868        H  0.21116916  0.60801276  0.11310085     0.13200
H869        H  0.21878118  0.57262841  0.06766531     0.13000
H870        H  0.20173735  0.54881889  0.08336227     0.12100
C871        C  0.36466098  0.73987842  0.08844930     0.18400
C872        C  0.35998577  0.75433099  0.09964823    -0.10700
C873        C  0.37342521  0.76417241  0.10844823    -0.11600
C874        C  0.39158939  0.75960166  0.10607785     0.20000
C875        C  0.39627331  0.74519652  0.09481714    -0.13600
C876        C  0.38283154  0.73535391  0.08601540    -0.11900
C877        C  0.40537949  0.76954728  0.11537038     0.00900
C878        C  0.41687278  0.77776053  0.12336844    -0.31900
C879        C  0.35082749  0.72965617  0.07952632     0.02300
C880        C  0.33929001  0.72106039  0.07200641    -0.33600
H881        H  0.34597569  0.75794402  0.10161460     0.13400
H882        H  0.36966139  0.77527914  0.11713824     0.13200
H883        H  0.41028040  0.74154332  0.09290437     0.13000
H884        H  0.38659009  0.72420505  0.07737648     0.12100
C885        C  0.19579830  0.56466846  0.80426378     0.18400
C886        C  0.19977046  0.58077826  0.79524571    -0.10700
C887        C  0.20938582  0.59438360  0.80403306    -0.11600
C888        C  0.21505827  0.59192131  0.82186465     0.20000
C889        C  0.21102788  0.57583563  0.83090318    -0.13600
C890        C  0.20141199  0.56223041  0.82211597    -0.11900
C891        C  0.22512580  0.60582343  0.83083617     0.00900
C892        C  0.23367073  0.61735222  0.83841556    -0.31900
C893        C  0.18610899  0.55059781  0.79515176     0.02300
C894        C  0.17809781  0.53882485  0.78737632    -0.33600
H895        H  0.19549328  0.58278674  0.78143321     0.13400
H896        H  0.21244271  0.60677127  0.79692596     0.13200
H897        H  0.21536225  0.57379937  0.84469362     0.13000
H898        H  0.19841188  0.54981562  0.82920010     0.12100
C899        C  0.54694256  0.74007005  0.08863990     0.18400
C900        C  0.53964519  0.73373588  0.10486260    -0.10700
C901        C  0.52606069  0.74348395  0.11353553    -0.11600
C902        C  0.51972144  0.75959638  0.10601440     0.20000
C903        C  0.52700635  0.76593225  0.08978627    -0.13600
C904        C  0.54059589  0.75618033  0.08110984    -0.11900
C905        C  0.50582577  0.76963558  0.11502371     0.00900
C906        C  0.49427353  0.77786318  0.12290943    -0.31900
C907        C  0.56084980  0.72998741  0.07968081     0.02300
C908        C  0.57236743  0.72143388  0.07208509    -0.33600
H909        H  0.54444634  0.72128386  0.11078570     0.13400
H910        H  0.52051694  0.73847833  0.12608738     0.13200
H911        H  0.52219901  0.77838354  0.08386790     0.13000
H912        H  0.54613973  0.76118137  0.06855722     0.12100
C913        C  0.82129013  0.59116852  0.21684182     0.18400
C914        C  0.80271904  0.58847438  0.21893490    -0.10700
C915        C  0.79389724  0.57531302  0.20874836    -0.11600
C916        C  0.80362223  0.56480938  0.19644062     0.20000
C917        C  0.82217198  0.56757210  0.19428160    -0.13600
C918        C  0.83099161  0.58073011  0.20446592    -0.11900
C919        C  0.79462903  0.55102901  0.18623514     0.00900
C920        C  0.78703542  0.53935171  0.17791338    -0.31900
C921        C  0.83042023  0.60454836  0.22745018     0.02300
C922        C  0.83820295  0.61569987  0.23630025    -0.33600
H923        H  0.79509770  0.59648258  0.22846922     0.13400
H924        H  0.77954653  0.57326750  0.21052458     0.13200
H925        H  0.82981118  0.55950864  0.18480901     0.13000
H926        H  0.84535776  0.58271614  0.20274848     0.12100
C927        C  0.82212980  0.40836859  0.21482536     0.18400
C928        C  0.83116238  0.42443790  0.21072175    -0.10700
C929        C  0.82244634  0.43791968  0.20086493    -0.11600
C930        C  0.80466597  0.43538298  0.19506842     0.20000
C931        C  0.79565469  0.41927581  0.19908775    -0.13600
C932        C  0.80437464  0.40578801  0.20894911    -0.11900
C933        C  0.79561069  0.44939302  0.18521389     0.00900
C934        C  0.78787831  0.46118160  0.17716666    -0.31900
C935        C  0.83103901  0.39463998  0.22520643     0.02300
C936        C  0.83867941  0.38334005  0.23401495    -0.33600
H937        H  0.84489207  0.42656864  0.21520641     0.13400
H938        H  0.82952506  0.45033081  0.19783977     0.13200
H939        H  0.78189374  0.41718903  0.19467809     0.13000
H940        H  0.79726841  0.39341253  0.21205521     0.12100
C941        C  0.69437879  0.59155563  0.08964263     0.18400
C942        C  0.69433404  0.59060130  0.10849493    -0.10700
C943        C  0.70418770  0.57715466  0.11726795    -0.11600
C944        C  0.71410464  0.56463568  0.10720672     0.20000
C945        C  0.71415720  0.56560376  0.08836300    -0.13600
C946        C  0.70430815  0.57904349  0.07959428    -0.11900
C947        C  0.72416347  0.55076123  0.11619633     0.00900
C948        C  0.73251236  0.53911247  0.12379039    -0.31900
C949        C  0.68421435  0.60531197  0.08057841     0.02300
C950        C  0.67571489  0.61671208  0.07276855    -0.33600
H951        H  0.68668702  0.60021555  0.11638076     0.13400
H952        H  0.70406131  0.57650287  0.13185304     0.13200
H953        H  0.72177966  0.55597446  0.08047190     0.13000
H954        H  0.70441632  0.57967116  0.06500830     0.12100
C955        C  0.69658051  0.40774856  0.08901488     0.18400
C956        C  0.69542759  0.40965962  0.10775587    -0.10700
C957        C  0.70497296  0.42338959  0.11642187    -0.11600
C958        C  0.71569867  0.43525448  0.10637531     0.20000
C959        C  0.71691723  0.43329593  0.08764324    -0.13600
C960        C  0.70737224  0.41956216  0.07897614    -0.11900
C961        C  0.72538237  0.44945234  0.11529734     0.00900
C962        C  0.73340155  0.46125744  0.12301759    -0.31900
C963        C  0.68646966  0.39387097  0.08005852     0.02300
C964        C  0.67779102  0.38246864  0.07244381    -0.33600
H965        H  0.68710102  0.40060616  0.11563535     0.13400
H966        H  0.70394882  0.42479214  0.13091754     0.13200
H967        H  0.72518025  0.44240111  0.07975720     0.13000
H968        H  0.70833341  0.41820674  0.06447194     0.12100
C969        C  0.10614054  0.23935336  0.52054714     0.18400
C970        C  0.11450762  0.24188334  0.53727111    -0.10700
C971        C  0.10586186  0.25184046  0.55071524    -0.11600
C972        C  0.08883042  0.25929262  0.54746252     0.20000
C973        C  0.08040259  0.25663416  0.53078848    -0.13600
C974        C  0.08904745  0.24667932  0.51734603    -0.11900
C975        C  0.08007299  0.26982913  0.56113101     0.00900
C976        C  0.07255769  0.27875907  0.57239468    -0.31900
C977        C  0.11523065  0.22952197  0.50658172     0.02300
C978        C  0.12306359  0.22150049  0.49486535    -0.33600
H979        H  0.12773451  0.23627164  0.53986177     0.13400
H980        H  0.11248101  0.25381880  0.56357280     0.13200
H981        H  0.06722500  0.26234094  0.52815456     0.13000
H982        H  0.08247760  0.24479892  0.50444815     0.12100
C983        C  0.08849605  0.25931280  0.36406031     0.18400
C984        C  0.08273075  0.26102657  0.38196349    -0.10700
C985        C  0.09133078  0.25130429  0.39562911    -0.11600
C986        C  0.10572036  0.23982757  0.39143545     0.20000
C987        C  0.11140200  0.23802179  0.37352261    -0.13600
C988        C  0.10280565  0.24774167  0.35986172    -0.11900
C989        C  0.11482063  0.23008254  0.40549658     0.00900
C990        C  0.12273303  0.22198652  0.41713248    -0.31900
C991        C  0.07984260  0.26953775  0.35004226     0.02300
C992        C  0.07250963  0.27820266  0.33842437    -0.33600
H993        H  0.07166926  0.26992983  0.38535602     0.13400
H994        H  0.08683506  0.25279977  0.40944000     0.13200
H995        H  0.12251936  0.22918446  0.37013978     0.13000
H996        H  0.10736325  0.24630815  0.34606532     0.12100
C997        C  0.54627755  0.26023116  0.82280388     0.18400
C998        C  0.53267393  0.26946808  0.81354568    -0.10700
C999        C  0.51915009  0.25986042  0.80465121    -0.11600
C1000       C  0.51919742  0.24099356  0.80499683     0.20000
C1001       C  0.53277339  0.23174945  0.81429109    -0.13600
C1002       C  0.54630153  0.24136054  0.82318937    -0.11900
C1003       C  0.50541408  0.23114239  0.79567465     0.00900
C1004       C  0.49392818  0.22296635  0.78767552    -0.31900
C1005       C  0.56018812  0.27013227  0.83189450     0.02300
C1006       C  0.57173465  0.27858427  0.83952053    -0.33600
H1007       H  0.53254471  0.28406381  0.81318579     0.13400
H1008       H  0.50870574  0.26711827  0.79748372     0.13200
H1009       H  0.53291785  0.21715328  0.81461619     0.13000
H1010       H  0.55676725  0.23410529  0.83032756     0.12100
C1011       C  0.36369070  0.26021846  0.82157649     0.18400
C1012       C  0.37212047  0.24579280  0.83036749    -0.10700
C1013       C  0.38574465  0.23611624  0.82166742    -0.11600
C1014       C  0.39098014  0.24084515  0.80415474     0.20000
C1015       C  0.38256845  0.25528490  0.79537649    -0.13600
C1016       C  0.36894693  0.26495797  0.80407373    -0.11900
C1017       C  0.40491871  0.23087025  0.79514733     0.00900
C1018       C  0.41652346  0.22263462  0.78735073    -0.31900
C1019       C  0.34976485  0.27024063  0.83056127     0.02300
C1020       C  0.33828601  0.27877183  0.83823233    -0.33600
H1021       H  0.36817116  0.24204615  0.84391888     0.13400
H1022       H  0.39217394  0.22497179  0.82856840     0.13200
H1023       H  0.38652921  0.25904577  0.78183214     0.13000
H1024       H  0.36253253  0.27611283  0.79717525     0.12100
C1025       C  0.19624756  0.15078126  0.51988688     0.18400
C1026       C  0.18978826  0.15061569  0.53762420    -0.10700
C1027       C  0.19963663  0.14197260  0.55114978    -0.11600
C1028       C  0.21596537  0.13348335  0.54696400     0.20000
C1029       C  0.22239842  0.13361323  0.52921777    -0.13600
C1030       C  0.21255311  0.14225494  0.51569572    -0.11900
C1031       C  0.22612540  0.12463083  0.56084596     0.00900
C1032       C  0.23475350  0.11707378  0.57230980    -0.31900
C1033       C  0.18625058  0.15984627  0.50602681     0.02300
C1034       C  0.17800210  0.16762414  0.49443347    -0.33600
H1035       H  0.17719440  0.15719183  0.54098931     0.13400
H1036       H  0.19455289  0.14192953  0.56483836     0.13200
H1037       H  0.23501102  0.12707067  0.52585544     0.13000
H1038       H  0.21765868  0.14233002  0.50201494     0.12100
C1039       C  0.39126643  0.15144484  0.71452507     0.18400
C1040       C  0.37790882  0.16152938  0.70580000    -0.10700
C1041       C  0.36434341  0.15279294  0.69608931    -0.11600
C1042       C  0.36409910  0.13394690  0.69508309     0.20000
C1043       C  0.37743485  0.12386383  0.70384525    -0.13600
C1044       C  0.39100162  0.13260029  0.71355346    -0.11900
C1045       C  0.35026219  0.12494891  0.68496731     0.00900
C1046       C  0.33881632  0.11726614  0.67641365    -0.31900
C1047       C  0.40525819  0.16044961  0.72440451     0.02300
C1048       C  0.41690579  0.16821150  0.73259629    -0.33600
H1049       H  0.37800744  0.17611352  0.70647739     0.13400
H1050       H  0.35409396  0.16070769  0.68934902     0.13200
H1051       H  0.37736187  0.10928167  0.70313432     0.13000
H1052       H  0.40127768  0.12468891  0.72025674     0.12100
C1053       C  0.19632032  0.84911904  0.51964544     0.18400
C1054       C  0.21401959  0.85476947  0.51628613    -0.10700
C1055       C  0.22396173  0.86318281  0.52988254    -0.11600
C1056       C  0.21623994  0.86596172  0.54688226     0.20000
C1057       C  0.19857867  0.86020569  0.55028003    -0.13600
C1058       C  0.18863376  0.85178941  0.53667983    -0.11900
C1059       C  0.22635910  0.87494295  0.56072676     0.00900
C1060       C  0.23489316  0.88269569  0.57213838    -0.31900
C1061       C  0.18609309  0.84051942  0.50564431     0.02300
C1062       C  0.17768648  0.83303715  0.49396495    -0.33600
H1063       H  0.22009690  0.85271804  0.50316885     0.13400
H1064       H  0.23761242  0.86758562  0.52712695     0.13200
H1065       H  0.19249053  0.86229328  0.56338615     0.13000
H1066       H  0.17496958  0.84741913  0.53941866     0.12100
C1067       C  0.54712789  0.13404430  0.69503630     0.18400
C1068       C  0.52930077  0.12785997  0.69433224    -0.10700
C1069       C  0.51586011  0.13666647  0.70416513    -0.11600
C1070       C  0.52020355  0.15167940  0.71474026     0.20000
C1071       C  0.53804245  0.15782367  0.71549889    -0.13600
C1072       C  0.55148432  0.14901672  0.70566389    -0.11900
C1073       C  0.50633833  0.16085576  0.72467723     0.00900
C1074       C  0.49467938  0.16863474  0.73286199    -0.31900
C1075       C  0.56090833  0.12509730  0.68477686     0.02300
C1076       C  0.57235332  0.11753264  0.67610400    -0.33600
H1077       H  0.52579569  0.11628912  0.68615442     0.13400
H1078       H  0.50210229  0.13181771  0.70348391     0.13200
H1079       H  0.54153562  0.16942874  0.72363223     0.13000
H1080       H  0.56523222  0.15389972  0.70629808     0.12100
C1081       C  0.82247186  0.26032974  0.36391801     0.18400
C1082       C  0.80649441  0.25101978  0.36010624    -0.10700
C1083       C  0.79790952  0.24106266  0.37361872    -0.11600
C1084       C  0.80527550  0.24037534  0.39098421     0.20000
C1085       C  0.82124134  0.24969366  0.39480175    -0.13600
C1086       C  0.82982579  0.25964865  0.38129080    -0.11900
C1087       C  0.79638265  0.23021750  0.40488918     0.00900
C1088       C  0.78867152  0.22185641  0.41647849    -0.31900
C1089       C  0.83131799  0.27060162  0.35004943     0.02300
C1090       C  0.83889837  0.27929597  0.33860638    -0.33600
H1091       H  0.80068720  0.25146858  0.34672200     0.13400
H1092       H  0.78554807  0.23392598  0.37054130     0.13200
H1093       H  0.82702860  0.24927273  0.40819598     0.13000
H1094       H  0.84216843  0.26681086  0.38438169     0.12100
C1095       C  0.82206547  0.25998354  0.54699321     0.18400
C1096       C  0.83212785  0.25212330  0.53308175    -0.10700
C1097       C  0.82345074  0.24228628  0.51955613    -0.11600
C1098       C  0.80467875  0.24027642  0.51989160     0.20000
C1099       C  0.79462466  0.24808644  0.53383199    -0.13600
C1100       C  0.80330011  0.25792156  0.54735514    -0.11900
C1101       C  0.79571027  0.23032445  0.50589288     0.00900
C1102       C  0.78801662  0.22210232  0.49420105    -0.31900
C1103       C  0.83097170  0.27027273  0.56079569     0.02300
C1104       C  0.83851590  0.27899940  0.57222275    -0.33600
H1105       H  0.84664557  0.25364373  0.53266869     0.13400
H1106       H  0.83135046  0.23630569  0.50883367     0.13200
H1107       H  0.78010074  0.24661669  0.53421309     0.13000
H1108       H  0.79539084  0.26395084  0.55804299     0.12100
C1109       C  0.71551971  0.15064651  0.51953826     0.18400
C1110       C  0.70772457  0.13377830  0.51624832    -0.10700
C1111       C  0.69793895  0.12511400  0.52981756    -0.11600
C1112       C  0.69592242  0.13330475  0.54669953     0.20000
C1113       C  0.70377325  0.15014347  0.55000561    -0.13600
C1114       C  0.71355885  0.15880629  0.53643828    -0.11900
C1115       C  0.68565157  0.12451194  0.56055236     0.00900
C1116       C  0.67690170  0.11705812  0.57200479    -0.31900
C1117       C  0.72541857  0.15964964  0.50555769     0.02300
C1118       C  0.73364086  0.16739776  0.49391661    -0.33600
H1119       H  0.70916615  0.12737334  0.50321118     0.13400
H1120       H  0.69190248  0.11209238  0.52713878     0.13200
H1121       H  0.70227392  0.15658244  0.56301910     0.13000
H1122       H  0.71953738  0.17185892  0.53909526     0.12100
C1123       C  0.71604983  0.14960741  0.39113635     0.18400
C1124       C  0.70098065  0.13925903  0.39587386    -0.10700
C1125       C  0.69093502  0.13057101  0.38252177    -0.11600
C1126       C  0.69591839  0.13220965  0.36438430     0.20000
C1127       C  0.71105769  0.14246261  0.35965505    -0.13600
C1128       C  0.72110572  0.15115273  0.37301010    -0.11900
C1129       C  0.68543497  0.12346701  0.35064385     0.00900
C1130       C  0.67659178  0.11605737  0.33923092    -0.31900
C1131       C  0.72611869  0.15887273  0.40484023     0.02300
C1132       C  0.73430451  0.16685330  0.41635544    -0.33600
H1133       H  0.69695189  0.13799454  0.40985269     0.13400
H1134       H  0.67925749  0.12266142  0.38631985     0.13200
H1135       H  0.71502996  0.14380128  0.34566732     0.13000
H1136       H  0.73272911  0.15913864  0.36920762     0.12100
C1137       C  0.54801342  0.86519466  0.21600079     0.18400
C1138       C  0.55133780  0.84842880  0.20800100    -0.10700
C1139       C  0.53773882  0.83978987  0.19823719    -0.11600
C1140       C  0.52078167  0.84789714  0.19644756     0.20000
C1141       C  0.51746841  0.86466357  0.20444106    -0.13600
C1142       C  0.53106145  0.87329835  0.21420089    -0.11900
C1143       C  0.50675038  0.83898158  0.18651936     0.00900
C1144       C  0.49496015  0.83142029  0.17832730    -0.31900
C1145       C  0.56194858  0.87408502  0.22608130     0.02300
C1146       C  0.57344762  0.88171887  0.23460862    -0.33600
H1147       H  0.56440366  0.84205033  0.20932578     0.13400
H1148       H  0.54042566  0.82681323  0.19211836     0.13200
H1149       H  0.50439447  0.87103144  0.20314844     0.13000
H1150       H  0.52835888  0.88625955  0.22034652     0.12100
C1151       C  0.36418268  0.26060312  0.08989441     0.18400
C1152       C  0.37468534  0.26902130  0.10312127    -0.10700
C1153       C  0.38831597  0.25940710  0.11187042    -0.11600
C1154       C  0.39149163  0.24134403  0.10741648     0.20000
C1155       C  0.38100985  0.23293026  0.09417082    -0.13600
C1156       C  0.36737734  0.24254660  0.08541931    -0.11900
C1157       C  0.40541094  0.23142650  0.11652050     0.00900
C1158       C  0.41699643  0.22315832  0.12431313    -0.31900
C1159       C  0.35021682  0.27052789  0.08086041     0.02300
C1160       C  0.33868051  0.27899762  0.07320600    -0.33600
H1161       H  0.37233509  0.28298728  0.10665995     0.13400
H1162       H  0.39634677  0.26603110  0.12210129     0.13200
H1163       H  0.38336003  0.21896318  0.09063810     0.13000
H1164       H  0.35934390  0.23592324  0.07519064     0.12100
C1165       C  0.52027464  0.24070387  0.10681508     0.18400
C1166       C  0.52778421  0.25593797  0.11503796    -0.10700
C1167       C  0.54134889  0.26565984  0.10629401    -0.11600
C1168       C  0.54745690  0.26017212  0.08930286     0.20000
C1169       C  0.53994546  0.24493572  0.08107026    -0.13600
C1170       C  0.52637326  0.23520849  0.08981907    -0.11900
C1171       C  0.56139057  0.27020127  0.08032345     0.00900
C1172       C  0.57298448  0.27869622  0.07277245    -0.31900
C1173       C  0.50631530  0.23076364  0.11583942     0.02300
C1174       C  0.49465169  0.22263473  0.12367044    -0.33600
H1175       H  0.52315176  0.26029145  0.12818068     0.13400
H1176       H  0.54706391  0.27743170  0.11276287     0.13200
H1177       H  0.54457266  0.24059470  0.06792199     0.13000
H1178       H  0.52064353  0.22344297  0.08335199     0.12100
C1179       C  0.54748273  0.13321640  0.21547184     0.18400
C1180       C  0.53062166  0.12511439  0.21290546    -0.10700
C1181       C  0.51724098  0.13407835  0.20313649    -0.11600
C1182       C  0.52067370  0.15117248  0.19589371     0.20000
C1183       C  0.53757320  0.15922930  0.19835287    -0.13600
C1184       C  0.55095742  0.15026322  0.20812553    -0.11900
C1185       C  0.50678312  0.16051779  0.18615329     0.00900
C1186       C  0.49505356  0.16839292  0.17816682    -0.31900
C1187       C  0.56111062  0.12413953  0.22583370     0.02300
C1188       C  0.57238256  0.11649126  0.23466725    -0.33600
H1189       H  0.52779677  0.11193768  0.21853388     0.13400
H1190       H  0.50421308  0.12773891  0.20131481     0.13200
H1191       H  0.54035795  0.17245088  0.19281010     0.13000
H1192       H  0.56395052  0.15664615  0.21003754     0.12100
C1193       C  0.21480836  0.13294796  0.36393269     0.18400
C1194       C  0.20254200  0.14656729  0.35942145    -0.10700
C1195       C  0.19291328  0.15544488  0.37296454    -0.11600
C1196       C  0.19551977  0.15072368  0.39105666     0.20000
C1197       C  0.20769354  0.13702275  0.39555687    -0.13600
C1198       C  0.21732018  0.12814755  0.38201702    -0.11900
C1199       C  0.18583371  0.16002901  0.40500472     0.00900
C1200       C  0.17778322  0.16789269  0.41669389    -0.31900
C1201       C  0.22500795  0.12407687  0.35005887     0.02300
C1202       C  0.23376311  0.11665294  0.33858363    -0.33600
H1203       H  0.20050652  0.15037910  0.34547545     0.13400
H1204       H  0.18352260  0.16602209  0.36934961     0.13200
H1205       H  0.20979808  0.13327260  0.40950964     0.13000
H1206       H  0.22677768  0.11763421  0.38564386     0.12100
C1207       C  0.36466668  0.13347196  0.21626075     0.18400
C1208       C  0.36146687  0.13913197  0.19853810    -0.10700
C1209       C  0.37500239  0.14802411  0.18889472    -0.11600
C1210       C  0.39176180  0.15126537  0.19695341     0.20000
C1211       C  0.39498581  0.14551289  0.21463359    -0.13600
C1212       C  0.38145950  0.13662532  0.22427014    -0.11900
C1213       C  0.40560052  0.16061485  0.18715833     0.00900
C1214       C  0.41718146  0.16854708  0.17901518    -0.31900
C1215       C  0.35072091  0.12455640  0.22631102     0.02300
C1216       C  0.33922250  0.11707158  0.23498146    -0.33600
H1217       H  0.34852187  0.13674055  0.19222681     0.13400
H1218       H  0.37239104  0.15242340  0.17521988     0.13200
H1219       H  0.40790698  0.14795703  0.22097371     0.13000
H1220       H  0.38405926  0.13228481  0.23796610     0.12100
C1221       C  0.21541237  0.86738735  0.36386188     0.18400
C1222       C  0.21413630  0.87486775  0.38114092    -0.10700
C1223       C  0.20422819  0.86604925  0.39452569    -0.11600
C1224       C  0.19556831  0.84972891  0.39066779     0.20000
C1225       C  0.19677706  0.84228888  0.37336637    -0.13600
C1226       C  0.20668631  0.85110793  0.35998091    -0.11900
C1227       C  0.18562593  0.84052678  0.40450975     0.00900
C1228       C  0.17745593  0.83272222  0.41616391    -0.31900
C1229       C  0.22579342  0.87633264  0.35017501     0.02300
C1230       C  0.23460205  0.88385523  0.33880479    -0.33600
H1231       H  0.22084449  0.88745238  0.38427090     0.13400
H1232       H  0.20337984  0.87189963  0.40787174     0.13200
H1233       H  0.19013491  0.82966425  0.37025955     0.13000
H1234       H  0.20760219  0.84521755  0.34665694     0.12100
C1235       C  0.36502272  0.86650015  0.21695170     0.18400
C1236       C  0.37789521  0.87641766  0.20732668    -0.10700
C1237       C  0.39133134  0.86749113  0.19760151    -0.11600
C1238       C  0.39192578  0.84862618  0.19747799     0.20000
C1239       C  0.37906184  0.83871272  0.20711534    -0.13600
C1240       C  0.36562830  0.84763784  0.21683900    -0.11900
C1241       C  0.40569645  0.83943500  0.18744902     0.00900
C1242       C  0.41718514  0.83162987  0.17906585    -0.31900
C1243       C  0.35124194  0.87566689  0.22698627     0.02300
C1244       C  0.33977075  0.88338230  0.23547290    -0.33600
H1245       H  0.37754134  0.89101351  0.20734759     0.13400
H1246       H  0.40122659  0.87527187  0.19019034     0.13200
H1247       H  0.37941710  0.82411726  0.20710130     0.13000
H1248       H  0.35573777  0.83985535  0.22425528     0.12100
C1249       C  0.69540264  0.86667681  0.36523990     0.18400
C1250       C  0.69805349  0.84801637  0.36432339    -0.10700
C1251       C  0.70801535  0.83924909  0.37768035    -0.11600
C1252       C  0.71535338  0.84912121  0.39198756     0.20000
C1253       C  0.71278811  0.86779792  0.39285532    -0.13600
C1254       C  0.70282343  0.87656744  0.37949482    -0.11900
C1255       C  0.72532127  0.84004490  0.40586800     0.00900
C1256       C  0.73348964  0.83223614  0.41750144    -0.31900
C1257       C  0.68495693  0.87563495  0.35163569     0.02300
C1258       C  0.67614258  0.88312757  0.34026879    -0.33600
H1259       H  0.69236689  0.84025854  0.35334577     0.13400
H1260       H  0.70992608  0.82479632  0.37690260     0.13200
H1261       H  0.71840988  0.87554088  0.40387617     0.13000
H1262       H  0.70084458  0.89100874  0.38031143     0.12100
C1263       C  0.82192378  0.73974401  0.54802848     0.18400
C1264       C  0.83167057  0.75192699  0.53737631    -0.10700
C1265       C  0.82298847  0.76155197  0.52369919    -0.11600
C1266       C  0.80453371  0.75902129  0.52063102     0.20000
C1267       C  0.79478855  0.74684889  0.53128885    -0.13600
C1268       C  0.80346786  0.73722754  0.54496264    -0.11900
C1269       C  0.79556850  0.76893122  0.50660801     0.00900
C1270       C  0.78782870  0.77718691  0.49497359    -0.31900
C1271       C  0.83088713  0.72967897  0.56195094     0.02300
C1272       C  0.83849484  0.72106651  0.57341980    -0.33600
H1273       H  0.84595606  0.75394899  0.53962047     0.13400
H1274       H  0.83064246  0.77093703  0.51553152     0.13200
H1275       H  0.78051026  0.74479907  0.52902349     0.13000
H1276       H  0.79581623  0.72781850  0.55310503     0.12100
C1277       C  0.69563510  0.86644805  0.54778891     0.18400
C1278       C  0.69465660  0.87252001  0.52993943    -0.10700
C1279       C  0.70447179  0.86377662  0.51644865    -0.11600
C1280       C  0.71530087  0.84893371  0.52076510     0.20000
C1281       C  0.71627534  0.84285399  0.53861399    -0.13600
C1282       C  0.70645785  0.85159919  0.55210737    -0.11900
C1283       C  0.72529631  0.83986639  0.50687395     0.00900
C1284       C  0.73352271  0.83209197  0.49524420    -0.31900
C1285       C  0.68554196  0.87547066  0.56163808     0.02300
C1286       C  0.67700581  0.88318870  0.57308026    -0.33600
H1287       H  0.68631782  0.88398875  0.52646460     0.13400
H1288       H  0.70360797  0.86856360  0.50268129     0.13200
H1289       H  0.72459290  0.83136817  0.54208136     0.13000
H1290       H  0.70729758  0.84679680  0.56587107     0.12100
C1291       C  0.80456852  0.75913533  0.39193704     0.18400
C1292       C  0.82339038  0.75768946  0.39207336    -0.10700
C1293       C  0.83218261  0.74780670  0.37866056    -0.11600
C1294       C  0.82217536  0.73933962  0.36508049     0.20000
C1295       C  0.80335821  0.74082647  0.36492700    -0.13600
C1296       C  0.79456885  0.75070642  0.37833546    -0.11900
C1297       C  0.83118778  0.72900731  0.35140334     0.00900
C1298       C  0.83877171  0.72025456  0.34003569    -0.31900
C1299       C  0.79549190  0.76916097  0.40578756     0.02300
C1300       C  0.78769964  0.77741986  0.41737386    -0.33600
H1301       H  0.83123864  0.76415190  0.40254615     0.13400
H1302       H  0.84674220  0.74672392  0.37890204     0.13200
H1303       H  0.79550049  0.73431703  0.35449091     0.13000
H1304       H  0.78000487  0.75173899  0.37812561     0.12100
C1305       C  0.36474425  0.73888972  0.82207217     0.18400
C1306       C  0.36919002  0.75634417  0.82772412    -0.10700
C1307       C  0.38258082  0.76606211  0.81868735    -0.11600
C1308       C  0.39156042  0.75834748  0.80398355     0.20000
C1309       C  0.38715633  0.74087378  0.79838123    -0.13600
C1310       C  0.37377356  0.73116129  0.80741315    -0.11900
C1311       C  0.40525508  0.76834644  0.79461412     0.00900
C1312       C  0.41674481  0.77662880  0.78667982    -0.31900
C1313       C  0.35088284  0.72891568  0.83122544     0.02300
C1314       C  0.33930323  0.72040700  0.83878401    -0.33600
H1315       H  0.36229051  0.76243337  0.83905788     0.13400
H1316       H  0.38590388  0.77956589  0.82312687     0.13200
H1317       H  0.39403401  0.73478819  0.78703228     0.13000
H1318       H  0.37043873  0.71766748  0.80295147     0.12100
C1319       C  0.54738644  0.86645669  0.69544543     0.18400
C1320       C  0.52977871  0.87326434  0.69548426    -0.10700
C1321       C  0.51624879  0.86439881  0.70515694    -0.11600
C1322       C  0.52027870  0.84869647  0.71482699     0.20000
C1323       C  0.53789160  0.84189446  0.71481031    -0.13600
C1324       C  0.55142588  0.85076314  0.70513493    -0.11900
C1325       C  0.50631883  0.83951134  0.72464281     0.00900
C1326       C  0.49459049  0.83170758  0.73272068    -0.31900
C1327       C  0.56127209  0.87556389  0.68544599     0.02300
C1328       C  0.57280136  0.88329391  0.67701332    -0.33600
H1329       H  0.52651733  0.88539063  0.68803242     0.13400
H1330       H  0.50266695  0.86975534  0.70507323     0.13200
H1331       H  0.54114027  0.82974809  0.72223519     0.13000
H1332       H  0.56500111  0.84538962  0.70518826     0.12100
C1333       C  0.52003067  0.75918586  0.80405567     0.18400
C1334       C  0.53566885  0.75412285  0.79476716    -0.10700
C1335       C  0.54921669  0.74450965  0.80364635    -0.11600
C1336       C  0.54717410  0.73992400  0.82184412     0.20000
C1337       C  0.53155204  0.74502140  0.83114906    -0.13600
C1338       C  0.51799995  0.75463720  0.82226722    -0.11900
C1339       C  0.56102686  0.72986126  0.83090546     0.00900
C1340       C  0.57253787  0.72128833  0.83848552    -0.31900
C1341       C  0.50605836  0.76896111  0.79486802     0.02300
C1342       C  0.49440583  0.77707450  0.78700638    -0.33600
H1343       H  0.53736275  0.75756925  0.78067894     0.13400
H1344       H  0.56123862  0.74061683  0.79632904     0.13200
H1345       H  0.52983724  0.74152573  0.84522288     0.13000
H1346       H  0.50595190  0.75848382  0.82956602     0.12100
C1347       C  0.36367490  0.86583573  0.69503394     0.18400
C1348       C  0.35946743  0.85057548  0.70533668    -0.10700
C1349       C  0.37300814  0.84167572  0.71495713    -0.11600
C1350       C  0.39078726  0.84801721  0.71429842     0.20000
C1351       C  0.39498319  0.86326254  0.70398558    -0.13600
C1352       C  0.38145239  0.87215654  0.69437412    -0.11900
C1353       C  0.40473969  0.83889691  0.72415719     0.00900
C1354       C  0.41649054  0.83123787  0.73231831    -0.31900
C1355       C  0.34981658  0.87499007  0.68507241     0.02300
C1356       C  0.33843101  0.88279229  0.67653698    -0.33600
H1357       H  0.34575977  0.84557152  0.70591826     0.13400
H1358       H  0.36963116  0.82988272  0.72288472     0.13200
H1359       H  0.40869200  0.86825922  0.70337798     0.13000
H1360       H  0.38484389  0.88393548  0.68643179     0.12100
C1361       C  0.71439451  0.56388410  0.80424869     0.18400
C1362       C  0.69553198  0.56334689  0.80465379    -0.10700
C1363       C  0.68589874  0.57706379  0.81322871    -0.11600
C1364       C  0.69509674  0.59136355  0.82141889     0.20000
C1365       C  0.71396676  0.59190118  0.82101579    -0.13600
C1366       C  0.72360428  0.57817840  0.81243580    -0.11900
C1367       C  0.68515218  0.60537352  0.83034841     0.00900
C1368       C  0.67661695  0.61687030  0.83798208    -0.31900
C1369       C  0.72426571  0.54985399  0.79529991     0.02300
C1370       C  0.73243242  0.53817135  0.78756862    -0.33600
H1371       H  0.68829321  0.55235445  0.79833911     0.13400
H1372       H  0.67130858  0.57651905  0.81348715     0.13200
H1373       H  0.72120257  0.60289438  0.82733005     0.13000
H1374       H  0.73819475  0.57871535  0.81216994     0.12100
C1375       C  0.82169574  0.40828989  0.69531044     0.18400
C1376       C  0.83146916  0.41962284  0.70680547    -0.10700
C1377       C  0.82258040  0.43303551  0.71658430    -0.11600
C1378       C  0.80390150  0.43514110  0.71488710     0.20000
C1379       C  0.79412944  0.42380184  0.70339965    -0.13600
C1380       C  0.80301666  0.41039215  0.69362227    -0.11900
C1381       C  0.79475749  0.44894447  0.72488734     0.00900
C1382       C  0.78693862  0.46049628  0.73315176    -0.31900
C1383       C  0.83084405  0.39462601  0.68512276     0.02300
C1384       C  0.83855248  0.38332896  0.67641381    -0.33600
H1385       H  0.84592750  0.41811047  0.70817278     0.13400
H1386       H  0.83024743  0.44175490  0.72542970     0.13200
H1387       H  0.77967773  0.42534255  0.70199508     0.13000
H1388       H  0.79535373  0.40170486  0.68474129     0.12100
C1389       C  0.69484737  0.40777005  0.82214908     0.18400
C1390       C  0.69438833  0.42544652  0.82874322    -0.10700
C1391       C  0.70399621  0.43904844  0.81993017    -0.11600
C1392       C  0.71409262  0.43500213  0.80450492     0.20000
C1393       C  0.71461195  0.41731111  0.79795489    -0.13600
C1394       C  0.70500270  0.40370929  0.80676750    -0.11900
C1395       C  0.72384782  0.44899220  0.79534056     0.00900
C1396       C  0.73202843  0.46061072  0.78750223    -0.31900
C1397       C  0.68477473  0.39386152  0.83108782     0.02300
C1398       C  0.67618034  0.38240012  0.83870818    -0.33600
H1399       H  0.68656843  0.42871010  0.84063519     0.13400
H1400       H  0.70351775  0.45269245  0.82509603     0.13200
H1401       H  0.72238969  0.41405773  0.78603317     0.13000
H1402       H  0.70543734  0.39007541  0.80157103     0.12100
C1403       C  0.82196401  0.59088421  0.69582837     0.18400
C1404       C  0.83193306  0.57848335  0.70599467    -0.10700
C1405       C  0.82309398  0.56494707  0.71569754    -0.11600
C1406       C  0.80425574  0.56376449  0.71526644     0.20000
C1407       C  0.79428788  0.57616872  0.70510789    -0.13600
C1408       C  0.80312526  0.58970234  0.69540674    -0.11900
C1409       C  0.79514657  0.54981461  0.72518148     0.00900
C1410       C  0.78731375  0.53816595  0.73335398    -0.31900
C1411       C  0.83105616  0.60475080  0.68577080     0.02300
C1412       C  0.83872223  0.61627169  0.67725755    -0.33600
H1413       H  0.84650824  0.57926977  0.70639917     0.13400
H1414       H  0.83092636  0.55541466  0.72350296     0.13200
H1415       H  0.77971408  0.57536407  0.70467708     0.13000
H1416       H  0.79529114  0.59921342  0.68757678     0.12100
loop_ 
_geom_bond_atom_site_label_1 
_geom_bond_atom_site_label_2 
_geom_bond_distance 
_geom_bond_site_symmetry_2 
_ccdc_geom_bond_type 
O1           Cu9   2.008       .  S
O1           C11   1.276       .  A
O2           Cu9   2.006       .  S
O2           C12   1.276       .  A
O3           Cu9   2.006       .  S
O3           C13   1.276       .  A
O4           Cu9   2.006       .  S
O4           C14   1.276       .  A
O5          Cu10   2.003       .  S
O5           C14   1.276       .  A
O6          Cu10   2.003       .  S
O6           C13   1.276       .  A
O7          Cu10   2.005       .  S
O7           C12   1.276       .  A
O8          Cu10   2.006       .  S
O8           C11   1.276       .  A
Cu9         Cu10   2.381       .  S
C11        C1410   1.433       .  S
C12        C1396   1.431       .  S
C13        C1382   1.431       .  S
C14        C1370   1.431       .  S
O15         Cu23   2.005       .  S
O15          C25   1.276       .  A
O16         Cu23   2.005       .  S
O16          C26   1.276       .  A
O17         Cu23   2.005       .  S
O17          C27   1.276       .  A
O18         Cu23   2.006       .  S
O18          C28   1.276       .  A
O19         Cu24   2.008       .  S
O19          C28   1.276       .  A
O20         Cu24   2.009       .  S
O20          C27   1.276       .  A
O21         Cu24   2.007       .  S
O21          C26   1.276       .  A
O22         Cu24   2.008       .  S
O22          C25   1.276       .  A
Cu23        Cu24   2.381       .  S
C25        C1326   1.433       .  S
C26        C1312   1.432       .  S
C27        C1354   1.432       .  S
C28        C1342   1.433       .  S
O29         Cu37   2.007       .  S
O29          C39   1.276       .  A
O30         Cu37   2.008       .  S
O30          C40   1.276       .  A
O31         Cu37   2.008       .  S
O31          C41   1.276       .  A
O32         Cu37   2.007       .  S
O32          C42   1.276       .  A
O33         Cu38   2.004       .  S
O33          C42   1.276       .  A
O34         Cu38   2.005       .  S
O34          C41   1.276       .  A
O35         Cu38   2.005       .  S
O35          C40   1.276       .  A
O36         Cu38   2.005       .  S
O36          C39   1.276       .  A
Cu37        Cu38   2.381       .  S
C39        C1300   1.432       .  S
C40        C1284   1.432       .  S
C41        C1270   1.433       .  S
C42        C1256   1.431       .  S
N43          N44   1.323       .  A
N43          C47   1.345       .  A
N43         Cu51   2.071       .  S
N44          C45   1.344       .  A
N44         Cu50   2.068       .  S
C45          C46   1.378       .  A
C45          H48   1.082       .  S
C46        C1230   1.434       .  S
C46          C47   1.379       .  A
C47          H49   1.082       .  S
Cu50         N53   2.068       .  S
Cu51         N61   2.072       .  S
Cu52         N54   2.069       .  S
Cu52         N60   2.069       .  S
N53          N54   1.321       .  A
N53          C57   1.344       .  A
N54          C55   1.344       .  A
C55          C56   1.383       .  A
C55          H58   1.082       .  S
C56          C57   1.383       .  A
C56          C80   1.469   1_565  S
C57          H59   1.082       .  S
N60          N61   1.324       .  A
N60          C64   1.344       .  A
N61          C62   1.345       .  A
C62          C63   1.378       .  A
C62          H65   1.082       .  S
C63        C1244   1.433       .  S
C63          C64   1.378       .  A
C64          H66   1.082       .  S
N67          N68   1.323       .  A
N67          C71   1.346       .  A
N67         Cu75   2.075       .  S
N68          C69   1.344       .  A
N68         Cu74   2.069       .  S
C69          C70   1.377       .  A
C69          H72   1.082       .  S
C70        C1202   1.435       .  S
C70          C71   1.380       .  A
C71          H73   1.082       .  S
Cu74         N77   2.069       .  S
Cu75         N85   2.075       .  S
Cu76         N78   2.066       .  S
Cu76         N84   2.066       .  S
N77          N78   1.321       .  A
N77          C81   1.344       .  A
N78          C79   1.344       .  A
C79          C80   1.383       .  A
C79          H82   1.082       .  S
C80          C81   1.383       .  A
C81          H83   1.082       .  S
N84          N85   1.323       .  A
N84          C88   1.344       .  A
N85          C86   1.346       .  A
C86          C87   1.379       .  A
C86          H89   1.082       .  S
C87        C1216   1.433       .  S
C87          C88   1.377       .  A
C88          H90   1.082       .  S
O91         Cu99   2.006       .  S
O91         C101   1.276       .  A
O92         Cu99   2.005       .  S
O92         C102   1.276       .  A
O93         Cu99   2.006       .  S
O93         C103   1.276       .  A
O94         Cu99   2.005       .  S
O94         C104   1.276       .  A
O95        Cu100   2.006       .  S
O95         C104   1.276       .  A
O96        Cu100   2.005       .  S
O96         C103   1.276       .  A
O97        Cu100   2.008       .  S
O97         C102   1.276       .  A
O98        Cu100   2.008       .  S
O98         C101   1.276       .  A
Cu99       Cu100   2.381       .  S
C101       C1186   1.433       .  S
C102       C1158   1.432       .  S
C103       C1214   1.431       .  S
C104       C1174   1.431       .  S
N105        N106   1.323       .  A
N105        C109   1.345       .  A
N105       Cu113   2.071       .  S
N106        C107   1.344       .  A
N106       Cu112   2.069       .  S
C107        C108   1.377       .  A
C107        H110   1.082       .  S
C108       C1258   1.433       .  S
C108        C109   1.379       .  A
C109        H111   1.082       .  S
Cu112       N115   2.069       .  S
Cu113       N123   2.071       .  S
Cu114       N116   2.072       .  S
Cu114       N122   2.072       .  S
N115        N116   1.321       .  A
N115        C119   1.344       .  A
N116        C117   1.345       .  A
C117        C118   1.384       .  A
C117        H120   1.082       .  S
C118        C119   1.383       .  A
C118        C142   1.471   1_565  S
C119        H121   1.082       .  S
N122        N123   1.324       .  A
N122        C126   1.344       .  A
N123        C124   1.345       .  A
C124        C125   1.378       .  A
C124        H127   1.082       .  S
C125       C1146   1.434       .  S
C125        C126   1.378       .  A
C126        H128   1.082       .  S
N129        N130   1.323       .  A
N129        C133   1.346       .  A
N129       Cu137   2.075       .  S
N130        C131   1.344       .  A
N130       Cu136   2.069       .  S
C131        C132   1.378       .  A
C131        H134   1.082       .  S
C132       C1130   1.435       .  S
C132        C133   1.380       .  A
C133        H135   1.082       .  S
Cu136       N139   2.070       .  S
Cu137       N147   2.075       .  S
Cu138       N140   2.072       .  S
Cu138       N146   2.071       .  S
N139        N140   1.321       .  A
N139        C143   1.344       .  A
N140        C141   1.345       .  A
C141        C142   1.383       .  A
C141        H144   1.082       .  S
C142        C143   1.383       .  A
C143        H145   1.082       .  S
N146        N147   1.323       .  A
N146        C150   1.345       .  A
N147        C148   1.346       .  A
C148        C149   1.380       .  A
C148        H151   1.082       .  S
C149       C1188   1.435       .  S
C149        C150   1.378       .  A
C150        H152   1.082       .  S
O153       Cu161   2.008       .  S
O153        C163   1.276       .  A
O154       Cu161   2.008       .  S
O154        C164   1.276       .  A
O155       Cu161   2.009       .  S
O155        C165   1.276       .  A
O156       Cu161   2.006       .  S
O156        C166   1.276       .  A
O157       Cu162   2.003       .  S
O157        C166   1.276       .  A
O158       Cu162   2.004       .  S
O158        C165   1.276       .  A
O159       Cu162   2.007       .  S
O159        C164   1.276       .  A
O160       Cu162   2.007       .  S
O160        C163   1.276       .  A
Cu161      Cu162   2.381       .  S
C163       C1102   1.433       .  S
C164       C1132   1.433       .  S
C165       C1088   1.432       .  S
C166       C1118   1.430       .  S
N167        N168   1.323       .  A
N167        C171   1.345       .  A
N167       Cu175   2.071       .  S
N168        C169   1.345       .  A
N168       Cu174   2.071       .  S
C169        C170   1.379       .  A
C169        H172   1.082       .  S
C170       C1328   1.435       .  S
C170        C171   1.379       .  A
C171        H173   1.082       .  S
Cu174       N177   2.071       .  S
Cu175       N185   2.071       .  S
Cu176       N178   2.071       .  S
Cu176       N184   2.070       .  S
N177        N178   1.322       .  A
N177        C181   1.345       .  A
N178        C179   1.344       .  A
C179        C180   1.383       .  A
C179        H182   1.082       .  S
C180        C181   1.383       .  A
C180        C204   1.470   1_565  S
C181        H183   1.082       .  S
N184        N185   1.323       .  A
N184        C188   1.345       .  A
N185        C186   1.345       .  A
C186        C187   1.379       .  A
C186        H189   1.082       .  S
C187       C1286   1.434       .  S
C187        C188   1.378       .  A
C188        H190   1.082       .  S
N191        N192   1.323       .  A
N191        C195   1.345       .  A
N191       Cu199   2.072       .  S
N192        C193   1.344       .  A
N192       Cu198   2.068       .  S
C193        C194   1.377       .  A
C193        H196   1.082       .  S
C194       C1116   1.433       .  S
C194        C195   1.379       .  A
C195        H197   1.082       .  S
Cu198       N201   2.069       .  S
Cu199       N209   2.072       .  S
Cu200       N202   2.070       .  S
Cu200       N208   2.070       .  S
N201        N202   1.321       .  A
N201        C205   1.344       .  A
N202        C203   1.345       .  A
C203        C204   1.383       .  A
C203        H206   1.082       .  S
C204        C205   1.383       .  A
C205        H207   1.082       .  S
N208        N209   1.323       .  A
N208        C212   1.344       .  A
N209        C210   1.345       .  A
C210        C211   1.379       .  A
C210        H213   1.082       .  S
C211       C1076   1.435       .  S
C211        C212   1.378       .  A
C212        H214   1.082       .  S
N215        N216   1.323       .  A
N215        C219   1.345       .  A
N215       Cu223   2.069       .  S
N216        C217   1.345       .  A
N216       Cu222   2.072       .  S
C217        C218   1.379       .  A
C217        H220   1.082       .  S
C218       C1356   1.434       .  S
C218        C219   1.378       .  A
C219        H221   1.082       .  S
Cu222       N225   2.071       .  S
Cu223       N233   2.068       .  S
Cu224       N226   2.074       .  S
Cu224       N232   2.074       .  S
N225        N226   1.322       .  A
N225        C229   1.345       .  A
N226        C227   1.345       .  A
C227        C228   1.384       .  A
C227        H230   1.082       .  S
C228        C229   1.383       .  A
C228        C252   1.472   1_565  S
C229        H231   1.082       .  S
N232        N233   1.323       .  A
N232        C236   1.345       .  A
N233        C234   1.345       .  A
C234        C235   1.378       .  A
C234        H237   1.082       .  S
C235       C1060   1.434       .  S
C235        C236   1.379       .  A
C236        H238   1.082       .  S
N239        N240   1.323       .  A
N239        C243   1.345       .  A
N239       Cu247   2.070       .  S
N240        C241   1.345       .  A
N240       Cu246   2.073       .  S
C241        C242   1.378       .  A
C241        H244   1.082       .  S
C242       C1046   1.434       .  S
C242        C243   1.378       .  A
C243        H245   1.082       .  S
Cu246       N249   2.074       .  S
Cu247       N257   2.069       .  S
Cu248       N250   2.069       .  S
Cu248       N256   2.069       .  S
N249        N250   1.322       .  A
N249        C253   1.345       .  A
N250        C251   1.345       .  A
C251        C252   1.383       .  A
C251        H254   1.082       .  S
C252        C253   1.384       .  A
C253        H255   1.082       .  S
N256        N257   1.323       .  A
N256        C260   1.344       .  A
N257        C258   1.345       .  A
C258        C259   1.378       .  A
C258        H261   1.082       .  S
C259       C1032   1.433       .  S
C259        C260   1.378       .  A
C260        H262   1.082       .  S
O263       Cu271   2.008       .  S
O263        C273   1.276       .  A
O264       Cu271   2.008       .  S
O264        C274   1.276       .  A
O265       Cu271   2.006       .  S
O265        C275   1.276       .  A
O266       Cu271   2.004       .  S
O266        C276   1.276       .  A
O267       Cu272   2.004       .  S
O267        C276   1.276       .  A
O268       Cu272   2.004       .  S
O268        C275   1.276       .  A
O269       Cu272   2.005       .  S
O269        C274   1.276       .  A
O270       Cu272   2.006       .  S
O270        C273   1.276       .  A
Cu271      Cu272   2.381       .  S
C273       C1074   1.433       .  S
C274       C1018   1.432       .  S
C275       C1048   1.431       .  S
C276       C1004   1.430       .  S
O277       Cu285   2.006       .  S
O277        C287   1.276       .  A
O278       Cu285   2.007       .  S
O278        C288   1.276       .  A
O279       Cu285   2.006       .  S
O279        C289   1.276       .  A
O280       Cu285   2.005       .  S
O280        C290   1.276       .  A
O281       Cu286   2.005       .  S
O281        C290   1.276       .  A
O282       Cu286   2.006       .  S
O282        C289   1.276       .  A
O283       Cu286   2.006       .  S
O283        C288   1.276       .  A
O284       Cu286   2.005       .  S
O284        C287   1.276       .  A
Cu285      Cu286   2.381       .  S
C287       C1034   1.431       .  S
C288        C990   1.433       .  S
C289       C1200   1.432       .  S
C290        C978   1.431       .  S
N291        N292   1.323       .  A
N291        C295   1.345       .  A
N291       Cu299   2.070       .  S
N292        C293   1.344       .  A
N292       Cu298   2.068       .  S
C293        C294   1.378       .  A
C293        H296   1.082       .  S
C294       C1006   1.433       .  S
C294        C295   1.378       .  A
C295        H297   1.082       .  S
Cu298       N301   2.069       .  S
Cu299       N309   2.070       .  S
Cu300       N302   2.068       .  S
Cu300       N308   2.068       .  S
N301        N302   1.322       .  A
N301        C305   1.344       .  A
N302        C303   1.344       .  A
C303        C304   1.382       .  A
C303        H306   1.082       .  S
C304        C305   1.383       .  A
C304        C328   1.469       .  S
C305        H307   1.082       .  S
N308        N309   1.323       .  A
N308        C312   1.344       .  A
N309        C310   1.345       .  A
C310        C311   1.379       .  A
C310        H313   1.082       .  S
C311       C1398   1.433       .  S
C311        C312   1.377       .  A
C312        H314   1.082       .  S
N315        N316   1.324       .  A
N315        C319   1.345       .  A
N315       Cu323   2.073       .  S
N316        C317   1.345       .  A
N316       Cu322   2.070       .  S
C317        C318   1.378       .  A
C317        H320   1.082       .  S
C318        C964   1.434       .  S
C318        C319   1.379       .  A
C319        H321   1.082       .  S
Cu322       N325   2.069   1_554  S
Cu323       N333   2.072       .  S
Cu324       N326   2.068   1_554  S
Cu324       N332   2.068       .  S
N325        N326   1.321       .  A
N325        C329   1.344       .  A
N326        C327   1.344       .  A
C327        C328   1.383       .  A
C327        H330   1.082       .  S
C328        C329   1.383       .  A
C329        H331   1.082       .  S
N332        N333   1.323       .  A
N332        C336   1.344       .  A
N333        C334   1.345       .  A
C334        C335   1.379       .  A
C334        H337   1.082       .  S
C335       C1172   1.434       .  S
C335        C336   1.378       .  A
C336        H338   1.082       .  S
O339       Cu347   2.007       .  S
O339        C349   1.276       .  A
O340       Cu347   2.009       .  S
O340        C350   1.276       .  A
O341       Cu347   2.008       .  S
O341        C351   1.276       .  A
O342       Cu347   2.009       .  S
O342        C352   1.276       .  A
O343       Cu348   2.005       .  S
O343        C352   1.276       .  A
O344       Cu348   2.005       .  S
O344        C351   1.276       .  A
O345       Cu348   2.005       .  S
O345        C350   1.276       .  A
O346       Cu348   2.003       .  S
O346        C349   1.276       .  A
Cu347      Cu348   2.381       .  S
C349        C948   1.431       .  S
C350        C934   1.433       .  S
C351        C962   1.432       .  S
C352        C920   1.432       .  S
N353        N354   1.323       .  A
N353        C357   1.345       .  A
N353       Cu361   2.073       .  S
N354        C355   1.344       .  A
N354       Cu360   2.069       .  S
C355        C356   1.378       .  A
C355        H358   1.082       .  S
C356       C1340   1.435       .  S
C356        C357   1.379       .  A
C357        H359   1.082       .  S
Cu360       N363   2.070       .  S
Cu361       N371   2.073       .  S
Cu362       N364   2.072       .  S
Cu362       N370   2.072       .  S
N363        N364   1.322       .  A
N363        C367   1.345       .  A
N364        C365   1.345       .  A
C365        C366   1.383       .  A
C365        H368   1.082       .  S
C366        C367   1.383       .  A
C366        C390   1.470       .  S
C367        H369   1.082       .  S
N370        N371   1.323       .  A
N370        C374   1.345       .  A
N371        C372   1.345       .  A
C372        C373   1.379       .  A
C372        H375   1.082       .  S
C373       C1368   1.434       .  S
C373        C374   1.378       .  A
C374        H376   1.082       .  S
N377        N378   1.323       .  A
N377        C381   1.345       .  A
N377       Cu385   2.071       .  S
N378        C379   1.345       .  A
N378       Cu384   2.071       .  S
C379        C380   1.378       .  A
C379        H382   1.082       .  S
C380        C950   1.434       .  S
C380        C381   1.378       .  A
C381        H383   1.082       .  S
Cu384       N387   2.071   1_554  S
Cu385       N395   2.071       .  S
Cu386       N388   2.073   1_554  S
Cu386       N394   2.072       .  S
N387        N388   1.322       .  A
N387        C391   1.345       .  A
N388        C389   1.345       .  A
C389        C390   1.383       .  A
C389        H392   1.082       .  S
C390        C391   1.383       .  A
C391        H393   1.082       .  S
N394        N395   1.323       .  A
N394        C398   1.345       .  A
N395        C396   1.345       .  A
C396        C397   1.379       .  A
C396        H399   1.082       .  S
C397        C908   1.435       .  S
C397        C398   1.379       .  A
C398        H400   1.082       .  S
N401        N402   1.323       .  A
N401        C405   1.346       .  A
N401       Cu409   2.074       .  S
N402        C403   1.344       .  A
N402       Cu408   2.066       .  S
C403        C404   1.377       .  A
C403        H406   1.082       .  S
C404       C1314   1.434       .  S
C404        C405   1.380       .  A
C405        H407   1.082       .  S
Cu408       N411   2.066       .  S
Cu409       N419   2.074       .  S
Cu410       N412   2.072       .  S
Cu410       N418   2.071       .  S
N411        N412   1.321       .  A
N411        C415   1.344       .  A
N412        C413   1.345       .  A
C413        C414   1.383       .  A
C413        H416   1.082       .  S
C414        C415   1.382       .  A
C414        C438   1.470       .  S
C415        H417   1.082       .  S
N418        N419   1.324       .  A
N418        C422   1.345       .  A
N419        C420   1.345       .  A
C420        C421   1.379       .  A
C420        H423   1.082       .  S
C421        C892   1.435       .  S
C421        C422   1.378       .  A
C422        H424   1.082       .  S
N425        N426   1.323       .  A
N425        C429   1.346       .  A
N425       Cu433   2.072       .  S
N426        C427   1.345       .  A
N426       Cu432   2.071       .  S
C427        C428   1.378       .  A
C427        H430   1.082       .  S
C428        C880   1.435       .  S
C428        C429   1.379       .  A
C429        H431   1.082       .  S
Cu432       N435   2.071   1_554  S
Cu433       N443   2.072       .  S
Cu434       N436   2.068   1_554  S
Cu434       N442   2.069       .  S
N435        N436   1.321       .  A
N435        C439   1.345       .  A
N436        C437   1.344       .  A
C437        C438   1.382       .  A
C437        H440   1.082       .  S
C438        C439   1.383       .  A
C439        H441   1.082       .  S
N442        N443   1.323       .  A
N442        C446   1.344       .  A
N443        C444   1.345       .  A
C444        C445   1.379       .  A
C444        H447   1.082       .  S
C445        C864   1.433       .  S
C445        C446   1.378       .  A
C446        H448   1.082       .  S
O449       Cu457   2.009       .  S
O449        C459   1.276       .  A
O450       Cu457   2.009       .  S
O450        C460   1.276       .  A
O451       Cu457   2.007       .  S
O451        C461   1.276       .  A
O452       Cu457   2.008       .  S
O452        C462   1.276       .  A
O453       Cu458   2.004       .  S
O453        C462   1.276       .  A
O454       Cu458   2.005       .  S
O454        C461   1.276       .  A
O455       Cu458   2.006       .  S
O455        C460   1.276       .  A
O456       Cu458   2.005       .  S
O456        C459   1.276       .  A
Cu457      Cu458   2.381       .  S
C459       C1144   1.432       .  S
C460        C878   1.433       .  S
C461       C1242   1.432       .  S
C462        C906   1.432       .  S
N463        N464   1.323       .  A
N463        C467   1.345       .  A
N463       Cu471   2.072       .  S
N464        C465   1.344       .  A
N464       Cu470   2.070       .  S
C465        C466   1.378       .  A
C465        H468   1.082       .  S
C466        C852   1.434       .  S
C466        C467   1.379       .  A
C467        H469   1.082       .  S
Cu470       N473   2.070       .  S
Cu471       N481   2.071       .  S
Cu472       N474   2.074       .  S
Cu472       N480   2.074       .  S
N473        N474   1.322       .  A
N473        C477   1.345       .  A
N474        C475   1.345       .  A
C475        C476   1.384       .  A
C475        H478   1.082       .  S
C476        C477   1.383       .  A
C476        C500   1.472       .  S
C477        H479   1.082       .  S
N480        N481   1.324       .  A
N480        C484   1.345       .  A
N481        C482   1.345       .  A
C482        C483   1.379       .  A
C482        H485   1.082       .  S
C483       C1020   1.435       .  S
C483        C484   1.378       .  A
C484        H486   1.082       .  S
N487        N488   1.323       .  A
N487        C491   1.345       .  A
N487       Cu495   2.073       .  S
N488        C489   1.345       .  A
N488       Cu494   2.071       .  S
C489        C490   1.378       .  A
C489        H492   1.082       .  S
C490       C1160   1.435       .  S
C490        C491   1.379       .  A
C491        H493   1.082       .  S
Cu494       N497   2.072   1_554  S
Cu495       N505   2.073       .  S
Cu496       N498   2.072   1_554  S
Cu496       N504   2.072       .  S
N497        N498   1.322       .  A
N497        C501   1.345       .  A
N498        C499   1.345       .  A
C499        C500   1.383       .  A
C499        H502   1.082       .  S
C500        C501   1.383       .  A
C501        H503   1.082       .  S
N504        N505   1.323       .  A
N504        C508   1.345       .  A
N505        C506   1.346       .  A
C506        C507   1.379       .  A
C506        H509   1.082       .  S
C507        C836   1.435       .  S
C507        C508   1.378       .  A
C508        H510   1.082       .  S
N511        N512   1.323       .  A
N511        C515   1.346       .  A
N511       Cu519   2.072       .  S
N512        C513   1.345       .  A
N512       Cu518   2.072       .  S
C513        C514   1.379       .  A
C513        H516   1.082       .  S
C514       C1104   1.436       .  S
C514        C515   1.380       .  A
C515        H517   1.082       .  S
Cu518       N521   2.072       .  S
Cu519       N529   2.072       .  S
Cu520       N522   2.067       .  S
Cu520       N528   2.068       .  S
N521        N522   1.321       .  A
N521        C525   1.345       .  A
N522        C523   1.344       .  A
C523        C524   1.383       .  A
C523        H526   1.082       .  S
C524        C525   1.383       .  A
C524        C548   1.470       .  S
C525        H527   1.082       .  S
N528        N529   1.324       .  A
N528        C532   1.344       .  A
N529        C530   1.345       .  A
C530        C531   1.378       .  A
C530        H533   1.082       .  S
C531       C1384   1.433       .  S
C531        C532   1.377       .  A
C532        H534   1.082       .  S
N535        N536   1.323       .  A
N535        C539   1.345       .  A
N535       Cu543   2.072       .  S
N536        C537   1.345       .  A
N536       Cu542   2.070       .  S
C537        C538   1.378       .  A
C537        H540   1.082       .  S
C538        C824   1.435       .  S
C538        C539   1.379       .  A
C539        H541   1.082       .  S
Cu542       N545   2.070   1_455  S
Cu543       N553   2.072       .  S
Cu544       N546   2.070   1_455  S
Cu544       N552   2.069       .  S
N545        N546   1.322       .  A
N545        C549   1.344       .  A
N546        C547   1.345       .  A
C547        C548   1.383       .  A
C547        H550   1.082       .  S
C548        C549   1.383       .  A
C549        H551   1.082       .  S
N552        N553   1.323       .  A
N552        C556   1.344       .  A
N553        C554   1.345       .  A
C554        C555   1.379       .  A
C554        H557   1.082       .  S
C555        C976   1.434       .  S
C555        C556   1.378       .  A
C556        H558   1.082       .  S
O559       Cu567   2.006       .  S
O559        C569   1.276       .  A
O560       Cu567   2.006       .  S
O560        C570   1.276       .  A
O561       Cu567   2.005       .  S
O561        C571   1.276       .  A
O562       Cu567   2.005       .  S
O562        C572   1.276       .  A
O563       Cu568   2.008       .  S
O563        C572   1.276       .  A
O564       Cu568   2.007       .  S
O564        C571   1.276       .  A
O565       Cu568   2.007       .  S
O565        C570   1.276       .  A
O566       Cu568   2.007       .  S
O566        C569   1.276       .  A
Cu567      Cu568   2.381       .  S
C569        C850   1.432       .  S
C570        C808   1.433       .  S
C571        C894   1.432       .  S
C572        C822   1.432       .  S
N573        N574   1.323       .  A
N573        C577   1.346       .  A
N573       Cu581   2.075       .  S
N574        C575   1.345       .  A
N574       Cu580   2.070       .  S
C575        C576   1.378       .  A
C575        H578   1.082       .  S
C576       C1272   1.435       .  S
C576        C577   1.380       .  A
C577        H579   1.082       .  S
Cu580       N583   2.070       .  S
Cu581       N591   2.075       .  S
Cu582       N584   2.072       .  S
Cu582       N590   2.072       .  S
N583        N584   1.322       .  A
N583        C587   1.344       .  A
N584        C585   1.345       .  A
C585        C586   1.383       .  A
C585        H588   1.082       .  S
C586        C587   1.383       .  A
C586        C610   1.470       .  S
C587        H589   1.082       .  S
N590        N591   1.323       .  A
N590        C594   1.345       .  A
N591        C592   1.346       .  A
C592        C593   1.379       .  A
C592        H595   1.082       .  S
C593       C1412   1.436       .  S
C593        C594   1.378       .  A
C594        H596   1.082       .  S
N597        N598   1.323       .  A
N597        C601   1.345       .  A
N597       Cu605   2.071       .  S
N598        C599   1.345       .  A
N598       Cu604   2.071       .  S
C599        C600   1.378       .  A
C599        H602   1.082       .  S
C600        C810   1.435       .  S
C600        C601   1.379       .  A
C601        H603   1.082       .  S
Cu604       N607   2.071   1_455  S
Cu605       N615   2.071       .  S
Cu606       N608   2.071   1_455  S
Cu606       N614   2.071       .  S
N607        N608   1.322       .  A
N607        C611   1.345       .  A
N608        C609   1.345       .  A
C609        C610   1.383       .  A
C609        H612   1.082       .  S
C610        C611   1.383       .  A
C611        H613   1.082       .  S
N614        N615   1.323       .  A
N614        C618   1.345       .  A
N615        C616   1.345       .  A
C616        C617   1.379       .  A
C616        H619   1.082       .  S
C617        C794   1.434       .  S
C617        C618   1.378       .  A
C618        H620   1.082       .  S
O621       Cu629   2.003       .  S
O621        C631   1.275       .  A
O622       Cu629   2.002       .  S
O622        C632   1.275       .  A
O623       Cu629   2.005       .  S
O623        C633   1.276       .  A
O624       Cu629   2.005       .  S
O624        C634   1.276       .  A
O625       Cu630   2.007       .  S
O625        C634   1.276       .  A
O626       Cu630   2.008       .  S
O626        C633   1.276       .  A
O627       Cu630   2.009       .  S
O627        C632   1.276       .  A
O628       Cu630   2.008       .  S
O628        C631   1.276       .  A
Cu629      Cu630   2.381       .  S
C631        C780   1.431       .  S
C632       C1062   1.432       .  S
C633        C796   1.432       .  S
C634       C1228   1.432       .  S
N635        N636   1.323       .  A
N635        C639   1.345       .  A
N635       Cu643   2.072       .  S
N636        C637   1.345       .  A
N636       Cu642   2.070       .  S
C637        C638   1.378       .  A
C637        H640   1.082       .  S
C638        C922   1.434       .  S
C638        C639   1.379       .  A
C639        H641   1.082       .  S
Cu642       N645   2.069       .  S
Cu643       N653   2.072       .  S
Cu644       N646   2.070       .  S
Cu644       N652   2.070       .  S
N645        N646   1.322       .  A
N645        C649   1.345       .  A
N646        C647   1.344       .  A
C647        C648   1.383       .  A
C647        H650   1.082       .  S
C648        C649   1.383       .  A
C648        C672   1.470       .  S
C649        H651   1.082       .  S
N652        N653   1.323       .  A
N652        C656   1.344       .  A
N653        C654   1.345       .  A
C654        C655   1.379       .  A
C654        H657   1.082       .  S
C655       C1298   1.435       .  S
C655        C656   1.378       .  A
C656        H658   1.082       .  S
N659        N660   1.323       .  A
N659        C663   1.345       .  A
N659       Cu667   2.069       .  S
N660        C661   1.344       .  A
N660       Cu666   2.069       .  S
C661        C662   1.378       .  A
C661        H664   1.082       .  S
C662        C782   1.433       .  S
C662        C663   1.378       .  A
C663        H665   1.082       .  S
Cu666       N669   2.069   1_455  S
Cu667       N677   2.069       .  S
Cu668       N670   2.072   1_455  S
Cu668       N676   2.071       .  S
N669        N670   1.322       .  A
N669        C673   1.344       .  A
N670        C671   1.345       .  A
C671        C672   1.383       .  A
C671        H674   1.082       .  S
C672        C673   1.382       .  A
C673        H675   1.082       .  S
N676        N677   1.323       .  A
N676        C680   1.345       .  A
N677        C678   1.345       .  A
C678        C679   1.378       .  A
C678        H681   1.082       .  S
C679        C766   1.434       .  S
C679        C680   1.378       .  A
C680        H682   1.082       .  S
N683        N684   1.323       .  A
N683        C687   1.346       .  A
N683       Cu691   2.073       .  S
N684        C685   1.345       .  A
N684       Cu690   2.073       .  S
C685        C686   1.379       .  A
C685        H688   1.082       .  S
C686       C1090   1.436       .  S
C686        C687   1.379       .  A
C687        H689   1.082       .  S
Cu690       N693   2.073       .  S
Cu691       N701   2.074       .  S
Cu692       N694   2.073       .  S
Cu692       N700   2.073       .  S
N693        N694   1.322       .  A
N693        C697   1.345       .  A
N694        C695   1.345       .  A
C695        C696   1.383       .  A
C695        H698   1.082       .  S
C696        C697   1.383       .  A
C696        C720   1.471       .  S
C697        H699   1.082       .  S
N700        N701   1.324       .  A
N700        C704   1.345       .  A
N701        C702   1.346       .  A
C702        C703   1.379       .  A
C702        H705   1.082       .  S
C703        C936   1.435       .  S
C703        C704   1.378       .  A
C704        H706   1.082       .  S
N707        N708   1.323       .  A
N707        C711   1.346       .  A
N707       Cu715   2.075       .  S
N708        C709   1.345       .  A
N708       Cu714   2.072       .  S
C709        C710   1.378       .  A
C709        H712   1.082       .  S
C710        C992   1.436       .  S
C710        C711   1.380       .  A
C711        H713   1.082       .  S
Cu714       N717   2.073   1_455  S
Cu715       N725   2.074       .  S
Cu716       N718   2.072   1_455  S
Cu716       N724   2.071       .  S
N717        N718   1.322       .  A
N717        C721   1.345       .  A
N718        C719   1.345       .  A
C719        C720   1.383       .  A
C719        H722   1.082       .  S
C720        C721   1.383       .  A
C721        H723   1.082       .  S
N724        N725   1.323       .  A
N724        C728   1.345       .  A
N725        C726   1.345       .  A
C726        C727   1.379       .  A
C726        H729   1.082       .  S
C727        C754   1.435       .  S
C727        C728   1.378       .  A
C728        H730   1.082       .  S
O731       Cu739   2.003       .  S
O731        C741   1.276       .  A
O732       Cu739   2.004       .  S
O732        C742   1.276       .  A
O733       Cu739   2.005       .  S
O733        C743   1.276       .  A
O734       Cu739   2.005       .  S
O734        C744   1.276       .  A
O735       Cu740   2.008       .  S
O735        C744   1.276       .  A
O736       Cu740   2.008       .  S
O736        C743   1.276       .  A
O737       Cu740   2.007       .  S
O737        C742   1.276       .  A
O738       Cu740   2.006       .  S
O738        C741   1.276       .  A
Cu739      Cu740   2.381       .  S
C741        C866   1.431       .  S
C742        C752   1.431       .  S
C743        C838   1.432       .  S
C744        C768   1.432       .  S
C745        C753   1.437       .  S
C745        C746   1.401       .  A
C745        C750   1.401       .  A
C746        C747   1.398       .  A
C746        H755   1.084       .  S
C747        C748   1.400       .  A
C747        H756   1.083       .  S
C748        C751   1.436       .  S
C748        C749   1.401       .  A
C749        C750   1.398       .  A
C749        H757   1.084       .  S
C750        H758   1.083       .  S
C751        C752   1.204       .  T
C753        C754   1.204       .  T
C759        C767   1.437       .  S
C759        C760   1.401       .  A
C759        C764   1.401       .  A
C760        C761   1.398       .  A
C760        H769   1.083       .  S
C761        C762   1.401       .  A
C761        H770   1.084       .  S
C762        C765   1.437       .  S
C762        C763   1.401       .  A
C763        C764   1.398       .  A
C763        H771   1.083       .  S
C764        H772   1.083       .  S
C765        C766   1.204       .  T
C767        C768   1.204       .  T
C773        C781   1.436       .  S
C773        C774   1.401       .  A
C773        C778   1.401       .  A
C774        C775   1.398       .  A
C774        H783   1.083       .  S
C775        C776   1.400       .  A
C775        H784   1.083       .  S
C776        C779   1.436       .  S
C776        C777   1.401       .  A
C777        C778   1.398       .  A
C777        H785   1.084       .  S
C778        H786   1.084       .  S
C779        C780   1.204       .  T
C781        C782   1.204       .  T
C787        C795   1.437       .  S
C787        C788   1.401       .  A
C787        C792   1.401       .  A
C788        C789   1.398       .  A
C788        H797   1.083       .  S
C789        C790   1.401       .  A
C789        H798   1.083       .  S
C790        C793   1.437       .  S
C790        C791   1.401       .  A
C791        C792   1.398       .  A
C791        H799   1.084       .  S
C792        H800   1.083       .  S
C793        C794   1.204       .  T
C795        C796   1.204       .  T
C801        C809   1.438       .  S
C801        C802   1.401       .  A
C801        C806   1.401       .  A
C802        C803   1.398       .  A
C802        H811   1.083       .  S
C803        C804   1.401       .  A
C803        H812   1.083       .  S
C804        C807   1.438       .  S
C804        C805   1.401       .  A
C805        C806   1.398       .  A
C805        H813   1.083       .  S
C806        H814   1.083       .  S
C807        C808   1.205       .  T
C809        C810   1.205       .  T
C815        C823   1.437       .  S
C815        C816   1.401       .  A
C815        C820   1.401       .  A
C816        C817   1.398       .  A
C816        H825   1.083       .  S
C817        C818   1.401       .  A
C817        H826   1.083       .  S
C818        C821   1.437       .  S
C818        C819   1.401       .  A
C819        C820   1.398       .  A
C819        H827   1.083       .  S
C820        H828   1.083       .  S
C821        C822   1.204       .  T
C823        C824   1.205       .  T
C829        C837   1.437       .  S
C829        C830   1.401       .  A
C829        C834   1.401       .  A
C830        C831   1.398       .  A
C830        H839   1.083       .  S
C831        C832   1.401       .  A
C831        H840   1.083       .  S
C832        C835   1.438       .  S
C832        C833   1.401       .  A
C833        C834   1.398       .  A
C833        H841   1.083       .  S
C834        H842   1.083       .  S
C835        C836   1.205       .  T
C837        C838   1.204       .  T
C843        C851   1.437       .  S
C843        C844   1.401       .  A
C843        C848   1.401       .  A
C844        C845   1.398       .  A
C844        H853   1.083       .  S
C845        C846   1.401       .  A
C845        H854   1.083       .  S
C846        C849   1.437       .  S
C846        C847   1.401       .  A
C847        C848   1.398       .  A
C847        H855   1.083       .  S
C848        H856   1.084       .  S
C849        C850   1.204       .  T
C851        C852   1.204       .  T
C857        C865   1.436       .  S
C857        C858   1.401       .  A
C857        C862   1.400       .  A
C858        C859   1.398       .  A
C858        H867   1.084       .  S
C859        C860   1.401       .  A
C859        H868   1.083       .  S
C860        C863   1.436       .  S
C860        C861   1.401       .  A
C861        C862   1.397       .  A
C861        H869   1.084       .  S
C862        H870   1.084       .  S
C863        C864   1.204       .  T
C865        C866   1.204       .  T
C871        C879   1.438       .  S
C871        C872   1.401       .  A
C871        C876   1.401       .  A
C872        C873   1.398       .  A
C872        H881   1.083       .  S
C873        C874   1.401       .  A
C873        H882   1.083       .  S
C874        C877   1.438       .  S
C874        C875   1.401       .  A
C875        C876   1.398       .  A
C875        H883   1.083       .  S
C876        H884   1.084       .  S
C877        C878   1.205       .  T
C879        C880   1.205       .  T
C885        C893   1.437       .  S
C885        C886   1.401       .  A
C885        C890   1.401       .  A
C886        C887   1.398       .  A
C886        H895   1.083       .  S
C887        C888   1.401       .  A
C887        H896   1.083       .  S
C888        C891   1.438       .  S
C888        C889   1.401       .  A
C889        C890   1.398       .  A
C889        H897   1.083       .  S
C890        H898   1.083       .  S
C891        C892   1.205       .  T
C893        C894   1.204       .  T
C899        C907   1.438       .  S
C899        C900   1.401       .  A
C899        C904   1.401       .  A
C900        C901   1.398       .  A
C900        H909   1.083       .  S
C901        C902   1.401       .  A
C901        H910   1.084       .  S
C902        C905   1.437       .  S
C902        C903   1.401       .  A
C903        C904   1.398       .  A
C903        H911   1.083       .  S
C904        H912   1.083       .  S
C905        C906   1.204       .  T
C907        C908   1.205       .  T
C913        C921   1.437       .  S
C913        C914   1.401       .  A
C913        C918   1.401       .  A
C914        C915   1.398       .  A
C914        H923   1.083       .  S
C915        C916   1.401       .  A
C915        H924   1.084       .  S
C916        C919   1.437       .  S
C916        C917   1.401       .  A
C917        C918   1.398       .  A
C917        H925   1.083       .  S
C918        H926   1.084       .  S
C919        C920   1.204       .  T
C921        C922   1.204       .  T
C927        C935   1.438       .  S
C927        C928   1.401       .  A
C927        C932   1.401       .  A
C928        C929   1.398       .  A
C928        H937   1.083       .  S
C929        C930   1.401       .  A
C929        H938   1.083       .  S
C930        C933   1.438       .  S
C930        C931   1.401       .  A
C931        C932   1.399       .  A
C931        H939   1.083       .  S
C932        H940   1.083       .  S
C933        C934   1.205       .  T
C935        C936   1.205       .  T
C941        C949   1.437       .  S
C941        C942   1.401       .  A
C941        C946   1.401       .  A
C942        C943   1.398       .  A
C942        H951   1.083       .  S
C943        C944   1.401       .  A
C943        H952   1.084       .  S
C944        C947   1.436       .  S
C944        C945   1.400       .  A
C945        C946   1.397       .  A
C945        H953   1.083       .  S
C946        H954   1.084       .  S
C947        C948   1.204       .  T
C949        C950   1.204       .  T
C955        C963   1.437       .  S
C955        C956   1.401       .  A
C955        C960   1.401       .  A
C956        C957   1.398       .  A
C956        H965   1.083       .  S
C957        C958   1.401       .  A
C957        H966   1.084       .  S
C958        C961   1.437       .  S
C958        C959   1.401       .  A
C959        C960   1.398       .  A
C959        H967   1.083       .  S
C960        H968   1.083       .  S
C961        C962   1.204       .  T
C963        C964   1.204       .  T
C969        C977   1.436       .  S
C969        C970   1.401       .  A
C969        C974   1.400       .  A
C970        C971   1.398       .  A
C970        H979   1.084       .  S
C971        C972   1.401       .  A
C971        H980   1.083       .  S
C972        C975   1.436       .  S
C972        C973   1.401       .  A
C973        C974   1.398       .  A
C973        H981   1.084       .  S
C974        H982   1.084       .  S
C975        C976   1.204       .  T
C977        C978   1.204       .  T
C983        C991   1.439       .  S
C983        C984   1.402       .  A
C983        C988   1.401       .  A
C984        C985   1.399       .  A
C984        H993   1.083       .  S
C985        C986   1.401       .  A
C985        H994   1.083       .  S
C986        C989   1.438       .  S
C986        C987   1.401       .  A
C987        C988   1.398       .  A
C987        H995   1.083       .  S
C988        H996   1.083       .  S
C989        C990   1.205       .  T
C991        C992   1.205       .  T
C997       C1005   1.436       .  S
C997        C998   1.401       .  A
C997       C1002   1.401       .  A
C998        C999   1.397       .  A
C998       H1007   1.084       .  S
C999       C1000   1.400       .  A
C999       H1008   1.084       .  S
C1000      C1003   1.435       .  S
C1000      C1001   1.401       .  A
C1001      C1002   1.398       .  A
C1001      H1009   1.084       .  S
C1002      H1010   1.083       .  S
C1003      C1004   1.203       .  T
C1005      C1006   1.203       .  T
C1011      C1019   1.437       .  S
C1011      C1012   1.401       .  A
C1011      C1016   1.401       .  A
C1012      C1013   1.398       .  A
C1012      H1021   1.083       .  S
C1013      C1014   1.401       .  A
C1013      H1022   1.083       .  S
C1014      C1017   1.437       .  S
C1014      C1015   1.401       .  A
C1015      C1016   1.398       .  A
C1015      H1023   1.084       .  S
C1016      H1024   1.083       .  S
C1017      C1018   1.204       .  T
C1019      C1020   1.204       .  T
C1025      C1033   1.436       .  S
C1025      C1026   1.401       .  A
C1025      C1030   1.400       .  A
C1026      C1027   1.398       .  A
C1026      H1035   1.083       .  S
C1027      C1028   1.401       .  A
C1027      H1036   1.083       .  S
C1028      C1031   1.436       .  S
C1028      C1029   1.401       .  A
C1029      C1030   1.397       .  A
C1029      H1037   1.084       .  S
C1030      H1038   1.084       .  S
C1031      C1032   1.204       .  T
C1033      C1034   1.203       .  T
C1039      C1047   1.436       .  S
C1039      C1040   1.401       .  A
C1039      C1044   1.401       .  A
C1040      C1041   1.398       .  A
C1040      H1049   1.084       .  S
C1041      C1042   1.401       .  A
C1041      H1050   1.083       .  S
C1042      C1045   1.437       .  S
C1042      C1043   1.401       .  A
C1043      C1044   1.398       .  A
C1043      H1051   1.083       .  S
C1044      H1052   1.083       .  S
C1045      C1046   1.204       .  T
C1047      C1048   1.204       .  T
C1053      C1061   1.437       .  S
C1053      C1054   1.401       .  A
C1053      C1058   1.401       .  A
C1054      C1055   1.398       .  A
C1054      H1063   1.084       .  S
C1055      C1056   1.401       .  A
C1055      H1064   1.084       .  S
C1056      C1059   1.437       .  S
C1056      C1057   1.401       .  A
C1057      C1058   1.398       .  A
C1057      H1065   1.083       .  S
C1058      H1066   1.083       .  S
C1059      C1060   1.204       .  T
C1061      C1062   1.204       .  T
C1067      C1075   1.437       .  S
C1067      C1068   1.401       .  A
C1067      C1072   1.401       .  A
C1068      C1069   1.398       .  A
C1068      H1077   1.084       .  S
C1069      C1070   1.401       .  A
C1069      H1078   1.083       .  S
C1070      C1073   1.437       .  S
C1070      C1071   1.401       .  A
C1071      C1072   1.398       .  A
C1071      H1079   1.083       .  S
C1072      H1080   1.083       .  S
C1073      C1074   1.204       .  T
C1075      C1076   1.204       .  T
C1081      C1089   1.439       .  S
C1081      C1082   1.401       .  A
C1081      C1086   1.401       .  A
C1082      C1083   1.398       .  A
C1082      H1091   1.083       .  S
C1083      C1084   1.401       .  A
C1083      H1092   1.084       .  S
C1084      C1087   1.438       .  S
C1084      C1085   1.401       .  A
C1085      C1086   1.398       .  A
C1085      H1093   1.083       .  S
C1086      H1094   1.083       .  S
C1087      C1088   1.204       .  T
C1089      C1090   1.205       .  T
C1095      C1103   1.439       .  S
C1095      C1096   1.401       .  A
C1095      C1100   1.401       .  A
C1096      C1097   1.399       .  A
C1096      H1105   1.083       .  S
C1097      C1098   1.401       .  A
C1097      H1106   1.083       .  S
C1098      C1101   1.438       .  S
C1098      C1099   1.401       .  A
C1099      C1100   1.398       .  A
C1099      H1107   1.083       .  S
C1100      H1108   1.083       .  S
C1101      C1102   1.205       .  T
C1103      C1104   1.205       .  T
C1109      C1117   1.435       .  S
C1109      C1110   1.400       .  A
C1109      C1114   1.401       .  A
C1110      C1111   1.397       .  A
C1110      H1119   1.084       .  S
C1111      C1112   1.401       .  A
C1111      H1120   1.084       .  S
C1112      C1115   1.436       .  S
C1112      C1113   1.400       .  A
C1113      C1114   1.397       .  A
C1113      H1121   1.083       .  S
C1114      H1122   1.084       .  S
C1115      C1116   1.204       .  T
C1117      C1118   1.203       .  T
C1123      C1131   1.438       .  S
C1123      C1124   1.401       .  A
C1123      C1128   1.401       .  A
C1124      C1125   1.398       .  A
C1124      H1133   1.084       .  S
C1125      C1126   1.401       .  A
C1125      H1134   1.084       .  S
C1126      C1129   1.438       .  S
C1126      C1127   1.401       .  A
C1127      C1128   1.398       .  A
C1127      H1135   1.083       .  S
C1128      H1136   1.083       .  S
C1129      C1130   1.205       .  T
C1131      C1132   1.205       .  T
C1137      C1145   1.437       .  S
C1137      C1138   1.401       .  A
C1137      C1142   1.401       .  A
C1138      C1139   1.398       .  A
C1138      H1147   1.084       .  S
C1139      C1140   1.401       .  A
C1139      H1148   1.083       .  S
C1140      C1143   1.437       .  S
C1140      C1141   1.401       .  A
C1141      C1142   1.398       .  A
C1141      H1149   1.083       .  S
C1142      H1150   1.084       .  S
C1143      C1144   1.204       .  T
C1145      C1146   1.204       .  T
C1151      C1159   1.438       .  S
C1151      C1152   1.401       .  A
C1151      C1156   1.401       .  A
C1152      C1153   1.398       .  A
C1152      H1161   1.084       .  S
C1153      C1154   1.401       .  A
C1153      H1162   1.084       .  S
C1154      C1157   1.437       .  S
C1154      C1155   1.401       .  A
C1155      C1156   1.398       .  A
C1155      H1163   1.083       .  S
C1156      H1164   1.083       .  S
C1157      C1158   1.204       .  T
C1159      C1160   1.205       .  T
C1165      C1173   1.437       .  S
C1165      C1166   1.401       .  A
C1165      C1170   1.401       .  A
C1166      C1167   1.397       .  A
C1166      H1175   1.084       .  S
C1167      C1168   1.401       .  A
C1167      H1176   1.083       .  S
C1168      C1171   1.437       .  S
C1168      C1169   1.401       .  A
C1169      C1170   1.398       .  A
C1169      H1177   1.083       .  S
C1170      H1178   1.083       .  S
C1171      C1172   1.204       .  T
C1173      C1174   1.204       .  T
C1179      C1187   1.438       .  S
C1179      C1180   1.401       .  A
C1179      C1184   1.401       .  A
C1180      C1181   1.398       .  A
C1180      H1189   1.083       .  S
C1181      C1182   1.401       .  A
C1181      H1190   1.084       .  S
C1182      C1185   1.438       .  S
C1182      C1183   1.401       .  A
C1183      C1184   1.398       .  A
C1183      H1191   1.083       .  S
C1184      H1192   1.083       .  S
C1185      C1186   1.205       .  T
C1187      C1188   1.205       .  T
C1193      C1201   1.438       .  S
C1193      C1194   1.401       .  A
C1193      C1198   1.401       .  A
C1194      C1195   1.398       .  A
C1194      H1203   1.083       .  S
C1195      C1196   1.401       .  A
C1195      H1204   1.083       .  S
C1196      C1199   1.437       .  S
C1196      C1197   1.401       .  A
C1197      C1198   1.398       .  A
C1197      H1205   1.083       .  S
C1198      H1206   1.083       .  S
C1199      C1200   1.204       .  T
C1201      C1202   1.205       .  T
C1207      C1215   1.436       .  S
C1207      C1208   1.401       .  A
C1207      C1212   1.401       .  A
C1208      C1209   1.398       .  A
C1208      H1217   1.083       .  S
C1209      C1210   1.401       .  A
C1209      H1218   1.083       .  S
C1210      C1213   1.436       .  S
C1210      C1211   1.400       .  A
C1211      C1212   1.397       .  A
C1211      H1219   1.084       .  S
C1212      H1220   1.084       .  S
C1213      C1214   1.204       .  T
C1215      C1216   1.204       .  T
C1221      C1229   1.437       .  S
C1221      C1222   1.401       .  A
C1221      C1226   1.401       .  A
C1222      C1223   1.398       .  A
C1222      H1231   1.084       .  S
C1223      C1224   1.401       .  A
C1223      H1232   1.084       .  S
C1224      C1227   1.437       .  S
C1224      C1225   1.401       .  A
C1225      C1226   1.398       .  A
C1225      H1233   1.083       .  S
C1226      H1234   1.084       .  S
C1227      C1228   1.204       .  T
C1229      C1230   1.204       .  T
C1235      C1243   1.436       .  S
C1235      C1236   1.401       .  A
C1235      C1240   1.401       .  A
C1236      C1237   1.398       .  A
C1236      H1245   1.084       .  S
C1237      C1238   1.401       .  A
C1237      H1246   1.083       .  S
C1238      C1241   1.437       .  S
C1238      C1239   1.401       .  A
C1239      C1240   1.398       .  A
C1239      H1247   1.083       .  S
C1240      H1248   1.084       .  S
C1241      C1242   1.204       .  T
C1243      C1244   1.204       .  T
C1249      C1257   1.436       .  S
C1249      C1250   1.400       .  A
C1249      C1254   1.401       .  A
C1250      C1251   1.397       .  A
C1250      H1259   1.084       .  S
C1251      C1252   1.401       .  A
C1251      H1260   1.084       .  S
C1252      C1255   1.436       .  S
C1252      C1253   1.401       .  A
C1253      C1254   1.398       .  A
C1253      H1261   1.083       .  S
C1254      H1262   1.083       .  S
C1255      C1256   1.204       .  T
C1257      C1258   1.204       .  T
C1263      C1271   1.438       .  S
C1263      C1264   1.401       .  A
C1263      C1268   1.401       .  A
C1264      C1265   1.398       .  A
C1264      H1273   1.083       .  S
C1265      C1266   1.401       .  A
C1265      H1274   1.083       .  S
C1266      C1269   1.438       .  S
C1266      C1267   1.401       .  A
C1267      C1268   1.398       .  A
C1267      H1275   1.083       .  S
C1268      H1276   1.083       .  S
C1269      C1270   1.205       .  T
C1271      C1272   1.205       .  T
C1277      C1285   1.437       .  S
C1277      C1278   1.401       .  A
C1277      C1282   1.401       .  A
C1278      C1279   1.398       .  A
C1278      H1287   1.084       .  S
C1279      C1280   1.401       .  A
C1279      H1288   1.083       .  S
C1280      C1283   1.437       .  S
C1280      C1281   1.401       .  A
C1281      C1282   1.398       .  A
C1281      H1289   1.083       .  S
C1282      H1290   1.083       .  S
C1283      C1284   1.204       .  T
C1285      C1286   1.204       .  T
C1291      C1299   1.437       .  S
C1291      C1292   1.401       .  A
C1291      C1296   1.401       .  A
C1292      C1293   1.398       .  A
C1292      H1301   1.084       .  S
C1293      C1294   1.401       .  A
C1293      H1302   1.083       .  S
C1294      C1297   1.437       .  S
C1294      C1295   1.401       .  A
C1295      C1296   1.398       .  A
C1295      H1303   1.083       .  S
C1296      H1304   1.084       .  S
C1297      C1298   1.204       .  T
C1299      C1300   1.204       .  T
C1305      C1313   1.437       .  S
C1305      C1306   1.401       .  A
C1305      C1310   1.401       .  A
C1306      C1307   1.398       .  A
C1306      H1315   1.083       .  S
C1307      C1308   1.401       .  A
C1307      H1316   1.083       .  S
C1308      C1311   1.437       .  S
C1308      C1309   1.401       .  A
C1309      C1310   1.398       .  A
C1309      H1317   1.083       .  S
C1310      H1318   1.084       .  S
C1311      C1312   1.204       .  T
C1313      C1314   1.204       .  T
C1319      C1327   1.438       .  S
C1319      C1320   1.401       .  A
C1319      C1324   1.401       .  A
C1320      C1321   1.398       .  A
C1320      H1329   1.083       .  S
C1321      C1322   1.401       .  A
C1321      H1330   1.083       .  S
C1322      C1325   1.437       .  S
C1322      C1323   1.401       .  A
C1323      C1324   1.398       .  A
C1323      H1331   1.083       .  S
C1324      H1332   1.083       .  S
C1325      C1326   1.204       .  T
C1327      C1328   1.205       .  T
C1333      C1341   1.438       .  S
C1333      C1334   1.401       .  A
C1333      C1338   1.401       .  A
C1334      C1335   1.398       .  A
C1334      H1343   1.083       .  S
C1335      C1336   1.401       .  A
C1335      H1344   1.083       .  S
C1336      C1339   1.438       .  S
C1336      C1337   1.401       .  A
C1337      C1338   1.398       .  A
C1337      H1345   1.083       .  S
C1338      H1346   1.083       .  S
C1339      C1340   1.205       .  T
C1341      C1342   1.205       .  T
C1347      C1355   1.437       .  S
C1347      C1348   1.401       .  A
C1347      C1352   1.401       .  A
C1348      C1349   1.399       .  A
C1348      H1357   1.083       .  S
C1349      C1350   1.401       .  A
C1349      H1358   1.083       .  S
C1350      C1353   1.437       .  S
C1350      C1351   1.400       .  A
C1351      C1352   1.398       .  A
C1351      H1359   1.083       .  S
C1352      H1360   1.083       .  S
C1353      C1354   1.204       .  T
C1355      C1356   1.204       .  T
C1361      C1369   1.436       .  S
C1361      C1362   1.400       .  A
C1361      C1366   1.401       .  A
C1362      C1363   1.397       .  A
C1362      H1371   1.084       .  S
C1363      C1364   1.401       .  A
C1363      H1372   1.083       .  S
C1364      C1367   1.437       .  S
C1364      C1365   1.401       .  A
C1365      C1366   1.398       .  A
C1365      H1373   1.083       .  S
C1366      H1374   1.084       .  S
C1367      C1368   1.204       .  T
C1369      C1370   1.204       .  T
C1375      C1383   1.436       .  S
C1375      C1376   1.401       .  A
C1375      C1380   1.400       .  A
C1376      C1377   1.398       .  A
C1376      H1385   1.084       .  S
C1377      C1378   1.401       .  A
C1377      H1386   1.083       .  S
C1378      C1381   1.436       .  S
C1378      C1379   1.401       .  A
C1379      C1380   1.397       .  A
C1379      H1387   1.084       .  S
C1380      H1388   1.084       .  S
C1381      C1382   1.203       .  T
C1383      C1384   1.203       .  T
C1389      C1397   1.436       .  S
C1389      C1390   1.401       .  A
C1389      C1394   1.400       .  A
C1390      C1391   1.398       .  A
C1390      H1399   1.084       .  S
C1391      C1392   1.401       .  A
C1391      H1400   1.083       .  S
C1392      C1395   1.436       .  S
C1392      C1393   1.401       .  A
C1393      C1394   1.398       .  A
C1393      H1401   1.083       .  S
C1394      H1402   1.083       .  S
C1395      C1396   1.204       .  T
C1397      C1398   1.204       .  T
C1403      C1411   1.439       .  S
C1403      C1404   1.401       .  A
C1403      C1408   1.401       .  A
C1404      C1405   1.399       .  A
C1404      H1413   1.083       .  S
C1405      C1406   1.401       .  A
C1405      H1414   1.083       .  S
C1406      C1409   1.438       .  S
C1406      C1407   1.401       .  A
C1407      C1408   1.398       .  A
C1407      H1415   1.083       .  S
C1408      H1416   1.083       .  S
C1409      C1410   1.205       .  T
C1411      C1412   1.205       .  T
