geometry optimzed in LAMMPS
_audit_creation_date              2020-12-01 
_audit_creation_method            'lammps2cif' 
_symmetry_space_group_name_H-M    'P1' 
_symmetry_Int_Tables_number       1 
_symmetry_cell_setting            triclinic 
loop_ 
_symmetry_equiv_pos_as_xyz 
  x,y,z 
_cell_length_a                    25.84162691 
_cell_length_b                    25.01115289646926 
_cell_length_c                    25.017196692246866 
_cell_angle_alpha                 82.86881110408969 
_cell_angle_beta                  96.27394134715334 
_cell_angle_gamma                 96.50253057857553 
loop_ 
_atom_site_label 
_atom_site_type_symbol 
_atom_site_fract_x 
_atom_site_fract_y 
_atom_site_fract_z 
_atom_site_charge 
N1          N  0.94418766  0.06810364  0.48954475    -0.36500
N2          N  0.93732074  0.95009710  0.49038155    -0.57000
N3          N  0.04975600  0.95721034  0.49702818    -0.36500
N4          N  0.05774778  0.07518388  0.50227476    -0.57000
C5          C  0.89303843  0.05454269  0.49761310     0.27100
C6          C  0.95625636  0.12072887  0.49844196     0.27100
C7          C  0.03784255  0.90286550  0.50703968     0.27100
C8          C  0.10077184  0.96827705  0.51479449     0.27100
C9          C  0.88578641  0.95685117  0.48135477     0.35700
C10         C  0.94222454  0.89867837  0.48137779     0.35700
C11         C  0.05215468  0.12875401  0.49050390     0.35700
C12         C  0.10842521  0.06917682  0.49755089     0.35700
C13         C  0.87246855  0.09954188  0.51109924    -0.21800
C14         C  0.91221784  0.14092086  0.51188707    -0.21800
C15         C  0.08163045  0.87934959  0.53196927    -0.21800
C16         C  0.12134137  0.92055364  0.53673790    -0.21800
C17         C  0.85782309  0.90909263  0.46728341    -0.22800
C18         C  0.89361253  0.87271381  0.46626436    -0.22800
C19         C  0.09981626  0.15695392  0.47936884    -0.22800
C20         C  0.13547285  0.11926991  0.48406133    -0.22800
C21         C  0.86336629  0.00392513  0.48999897    -0.18200
C22         C  0.00475510  0.15241512  0.49086468    -0.18200
C23         C  0.13072925  0.01918303  0.50637069    -0.18200
C24         C  0.98934968  0.87360293  0.49144473    -0.18200
H25         H  0.83258460  0.10304762  0.51843109     0.14800
H26         H  0.90877291  0.18166267  0.52047925     0.14800
H27         H  0.08481919  0.83679274  0.54474337     0.14800
H28         H  0.16119397  0.91582610  0.55353695     0.14800
H29         H  0.81593195  0.90071762  0.45916447     0.13000
H30         H  0.88453892  0.83135679  0.45705567     0.13000
H31         H  0.10807237  0.20009366  0.46859366     0.13000
H32         H  0.17649301  0.12775689  0.47772542     0.13000
H33         H  0.96784472  0.04482729  0.47313311     0.26300
H34         H  0.02676675  0.98411517  0.47292381     0.26300
O35         O  0.12278645  0.57333816  0.48444633    -0.80800
O36         O  0.88914970  0.52513070  0.52393362    -0.65400
O37         O  0.03519877  0.51671073  0.52646906    -1.12000
C38         C  0.98549824  0.47974267  0.34611691     1.06100
O39         O  0.87749130  0.44652633  0.49113244    -0.78600
O40         O  0.94286073  0.39745435  0.44045166    -0.66200
Ni41       Ni  0.08531660  0.57393489  0.54675004     1.34900
C42         C  0.98681530  0.38607569  0.46430012     0.84900
O43         O  0.97003279  0.53372894  0.59977248    -0.79200
O44         O  0.05187976  0.57648048  0.61152797    -0.89500
C45         C  0.85957102  0.48324119  0.51228090     0.84400
O46         O  0.05135637  0.63404155  0.51043871    -0.67700
O47         O  0.93787162  0.47549273  0.35665299    -0.87000
C48         C  0.00337784  0.64185175  0.50309636     0.85300
C49         C  0.00811121  0.55614905  0.62836520     1.06800
H50         H  0.95640784  0.54790106  0.43001833     0.38600
O51         O  0.96055753  0.51369165  0.45191604    -1.09600
O52         O  0.02187211  0.42280706  0.47911790    -0.66300
Ni53       Ni  0.03134214  0.50008746  0.45416849     1.26300
O54         O  0.96671809  0.60323704  0.50824182    -0.66500
O55         O  0.02497805  0.48506572  0.38097486    -0.78800
C56         C  0.13698549  0.53066782  0.46995322     0.84700
O57         O  0.10356542  0.49148633  0.45925969    -0.66000
Ni58       Ni  0.90853407  0.46210927  0.42418126     1.27400
Ni59       Ni  0.96312131  0.52452479  0.52590310     1.26100
H60         H  0.04279916  0.48480075  0.55083091     0.39200
O61         O  0.63120493  0.03707798  0.54411427    -0.80800
O62         O  0.38848967  0.02504372  0.53183979    -0.65400
O63         O  0.52879840  0.98624313  0.55851198    -1.12000
C64         C  0.50762055  0.97082201  0.37247090     1.06100
O65         O  0.36266739  0.95604448  0.48509353    -0.78600
O66         O  0.43281447  0.88877591  0.46876660    -0.66200
Ni67       Ni  0.58144674  0.03072859  0.59710253     1.34900
C68         C  0.47645920  0.87269481  0.48867571     0.84900
O69         O  0.45352173  0.00852117  0.62195807    -0.79200
O70         O  0.53788750  0.02536594  0.65467134    -0.89500
C71         C  0.35217990  0.99545230  0.50823552     0.84400
O72         O  0.56095209  0.10039278  0.56736640    -0.67700
O73         O  0.45939354  0.95764980  0.37900317    -0.87000
C74         C  0.51846879  0.11628406  0.54377594     0.85300
C75         C  0.48945553  0.01334694  0.66057284     1.06800
H76         H  0.46743065  0.03811502  0.45336078     0.38600
O77         O  0.46649073  0.00236187  0.47308098    -1.09600
O78         O  0.51797444  0.90512990  0.49413665    -0.66300
Ni79       Ni  0.53657719  0.98273889  0.48472855     1.26300
O80         O  0.47772379  0.08382852  0.53513203    -0.66500
O81         O  0.54238385  0.98177499  0.41040341    -0.78800
C82         C  0.64306613  0.99935730  0.51951768     0.84700
O83         O  0.60776854  0.96649844  0.49882829    -0.66000
Ni84       Ni  0.41419461  0.95759646  0.43461487     1.27400
Ni85       Ni  0.45887769  0.00672618  0.54688238     1.26100
H86         H  0.52762610  0.95000650  0.57788786     0.39200
N87         N  0.52252211  0.93790678  0.08005747    -0.36500
N88         N  0.48212218  0.93258109  0.97100743    -0.57000
N89         N  0.50413676  0.04681564  0.95362247    -0.36500
N90         N  0.54575058  0.05441153  0.06526144    -0.57000
C91         C  0.52711719  0.88566753  0.07520648     0.27100
C92         C  0.55304069  0.95036872  0.12476972     0.27100
C93         C  0.49894868  0.03385451  0.90247912     0.27100
C94         C  0.53023981  0.09667095  0.95268910     0.27100
C95         C  0.47140009  0.88009760  0.98918562     0.35700
C96         C  0.45886463  0.93992945  0.92034448     0.35700
C97         C  0.54203020  0.04627267  0.11892275     0.35700
C98         C  0.53545260  0.10574998  0.04932255     0.35700
C99         C  0.56172218  0.86497897  0.11712399    -0.21800
C100        C  0.57768656  0.90600687  0.14887203    -0.21800
C101        C  0.52332949  0.07553301  0.86903677    -0.21800
C102        C  0.54248099  0.11561889  0.90082748    -0.21800
C103        C  0.44026377  0.85349811  0.94991650    -0.22800
C104        C  0.43212980  0.89173593  0.90604455    -0.22800
C105        C  0.53086396  0.09313577  0.13772596    -0.22800
C106        C  0.52710956  0.13135098  0.09320681    -0.22800
C107        C  0.49697990  0.85550717  0.03679553    -0.18200
C108        C  0.54872896  0.99636889  0.14971381    -0.18200
C109        C  0.53361764  0.12857259  0.99522900    -0.18200
C110        C  0.46969172  0.98704684  0.88489258    -0.18200
H111        H  0.57244924  0.82399668  0.12560746     0.14800
H112        H  0.60240279  0.90299983  0.18672662     0.14800
H113        H  0.52559589  0.07778152  0.82587329     0.14800
H114        H  0.56146054  0.15499786  0.88713872     0.14800
H115        H  0.42712464  0.81072386  0.95163390     0.13000
H116        H  0.41160609  0.88431982  0.86716468     0.13000
H117        H  0.52532505  0.09901070  0.17876465     0.13000
H118        H  0.51801306  0.17258527  0.09288526     0.13000
H119        H  0.49378320  0.96114023  0.05994961     0.26300
H120        H  0.48406642  0.02694044  0.98548868     0.26300
N121        N  0.94783085  0.49826537  0.04216955    -0.36500
N122        N  0.06448555  0.51037163  0.04788344    -0.57000
N123        N  0.05632100  0.52240623  0.93489351    -0.36500
N124        N  0.93987496  0.51461746  0.92974142    -0.57000
C125        C  0.96288448  0.50849971  0.09335853     0.27100
C126        C  0.89691365  0.50776478  0.03161962     0.27100
C127        C  0.10843911  0.53558545  0.94548132     0.27100
C128        C  0.04329062  0.54216603  0.88333818     0.27100
C129        C  0.05637118  0.49077131  0.09897227     0.35700
C130        C  0.11455085  0.50354396  0.04214342     0.35700
C131        C  0.88897374  0.49751850  0.93516196     0.35700
C132        C  0.94685866  0.51338007  0.87755701     0.35700
C133        C  0.92127188  0.52529460  0.11561859    -0.21800
C134        C  0.87952478  0.52470638  0.07655438    -0.21800
C135        C  0.12895891  0.56340507  0.90006086    -0.21800
C136        C  0.08787480  0.56754627  0.86067197    -0.21800
C137        C  0.10164558  0.47189231  0.12624499    -0.22800
C138        C  0.13881652  0.48033339  0.09003988    -0.22800
C139        C  0.86341174  0.48494391  0.88608909    -0.22800
C140        C  0.89994742  0.49601878  0.84921428    -0.22800
C141        C  0.01054623  0.49554836  0.12258455    -0.18200
C142        C  0.86545578  0.49833552  0.98326806    -0.18200
C143        C  0.99382481  0.53202734  0.85446648    -0.18200
C144        C  0.13827312  0.51991725  0.99416923    -0.18200
H145        H  0.92059211  0.53525089  0.15641564     0.14800
H146        H  0.84070168  0.53482733  0.08098724     0.14800
H147        H  0.16939025  0.57847080  0.89560393     0.14800
H148        H  0.09112868  0.58597801  0.81958241     0.14800
H149        H  0.10754991  0.45496885  0.16815586     0.13000
H150        H  0.17891899  0.47071481  0.09802674     0.13000
H151        H  0.82251511  0.47102861  0.87737512     0.13000
H152        H  0.89258807  0.49233376  0.80633988     0.13000
H153        H  0.96903415  0.47825857  0.01918789     0.26300
H154        H  0.03222917  0.49519122  0.95838423     0.26300
O155        O  0.37569408  0.48932673  0.94557407    -0.80800
O156        O  0.60767826  0.47335103  0.96335139    -0.65400
O157        O  0.46687037  0.45276092  0.99906081    -1.12000
C158        C  0.51457199  0.62762573  0.05143684     1.06100
O159        O  0.62900552  0.48664306  0.04872070    -0.78600
O160        O  0.56398603  0.51086835  0.12138304    -0.66200
Ni161      Ni  0.41268982  0.42620092  0.94874063     1.34900
C162        C  0.51761249  0.49813728  0.13448182     0.84900
O163        O  0.53271977  0.38966686  0.95784237    -0.79200
O164        O  0.44680846  0.36143845  0.95166575    -0.89500
C165        C  0.64230429  0.47962124  0.00270003     0.84400
O166        O  0.43917683  0.45265410  0.88001111    -0.67700
O167        O  0.55970775  0.61096105  0.06459252    -0.87000
C168        C  0.48169428  0.47823250  0.86559819     0.85300
C169        C  0.49487756  0.35248538  0.95422107     1.06800
H170        H  0.54177941  0.55790337  0.97154002     0.38600
O171        O  0.53795731  0.53056691  0.00216433    -1.09600
O172        O  0.47822234  0.49998605  0.09810346    -0.66300
Ni173      Ni  0.46749122  0.52444131  0.01900278     1.26300
O174        O  0.51971855  0.49000098  0.90117037    -0.66500
O175        O  0.47363526  0.59783111  0.03517867    -0.78800
C176        C  0.36034700  0.50482416  0.98731223     0.84700
O177        O  0.39353399  0.51674051  0.02682394    -0.66000
Ni178      Ni  0.59212151  0.54770992  0.05679717     1.27400
Ni179      Ni  0.53612458  0.46137412  0.97781469     1.26100
H180        H  0.46640454  0.42763296  0.03170709     0.39200
O181        O  0.37309830  0.48290358  0.44071250    -0.80800
O182        O  0.60585783  0.46734772  0.48227276    -0.65400
O183        O  0.46245994  0.45305587  0.50288021    -1.12000
C184        C  0.49869439  0.64102895  0.52642260     1.06100
O185        O  0.62213262  0.50462277  0.55861374    -0.78600
O186        O  0.55335861  0.54373291  0.61451146    -0.66200
Ni187      Ni  0.41131627  0.41993175  0.45378449     1.34900
C188        C  0.50921707  0.52224912  0.62832669     0.84900
O189        O  0.53201960  0.38142807  0.48570683    -0.79200
O190        O  0.44626810  0.35476772  0.46678230    -0.89500
C191        C  0.63791647  0.48270221  0.52084953     0.84400
O192        O  0.44077198  0.43957814  0.38558556    -0.67700
O193        O  0.54647572  0.63104081  0.53695406    -0.87000
C194        C  0.48542183  0.45976625  0.37189815     0.85300
C195        C  0.49383239  0.34459153  0.47937976     1.06800
H196        H  0.53405919  0.55419807  0.46223258     0.38600
O197        O  0.53136360  0.53338142  0.49723484    -1.09600
O198        O  0.47122568  0.51145053  0.59224599    -0.66300
Ni199      Ni  0.46055767  0.52757118  0.51212080     1.26300
O200        O  0.52301350  0.47156079  0.40822800    -0.63700
O201        O  0.46104337  0.60400290  0.51855268    -0.78800
C202        C  0.35667971  0.50454977  0.47839093     0.84700
O203        O  0.38780427  0.51779563  0.51858042    -0.66000
Ni204      Ni  0.58242063  0.56653314  0.54689483     1.27400
Ni205      Ni  0.53313277  0.45829879  0.48894446     1.26100
H206        H  0.45955537  0.43201333  0.53774401     0.39200
C207        C  0.50260000  0.51093961  0.68931175     0.00000
C208        C  0.45304250  0.49368378  0.70749535    -0.11900
C209        C  0.44508363  0.48443171  0.76340465     0.02200
C210        C  0.48725044  0.49250321  0.80462669    -0.00100
C211        C  0.53668364  0.51048445  0.78640100    -0.11800
C212        C  0.54480912  0.51897428  0.73056462     0.02100
H213        H  0.41981030  0.48733707  0.67773666     0.15100
H214        H  0.57000702  0.51654421  0.81612482     0.15100
C215        C  0.59798344  0.53415218  0.71759282     0.36700
C216        C  0.39242593  0.46662374  0.77651903     0.36600
N217        N  0.64068020  0.54592151  0.70729597    -0.43600
N218        N  0.35004289  0.45222249  0.78648183    -0.43600
C219        C  0.50983068  0.48346369  0.19529803     0.00000
C220        C  0.45930758  0.47800653  0.21308504    -0.11900
C221        C  0.45064526  0.47041529  0.26895326     0.02200
C222        C  0.49309565  0.46850744  0.31081469    -0.00100
C223        C  0.54351111  0.47239584  0.29310043    -0.11800
C224        C  0.55215546  0.47932625  0.23721045     0.02100
H225        H  0.42586586  0.48080053  0.18303247     0.15100
H226        H  0.57685608  0.46956505  0.32327416     0.15100
C227        C  0.60570912  0.48190000  0.22488821     0.36700
C228        C  0.39699432  0.46619846  0.28138780     0.36600
N229        N  0.64885947  0.48388271  0.21567927    -0.43600
N230        N  0.35374656  0.46279216  0.29062812    -0.43600
C231        C  0.69822319  0.48035841  0.99488640     0.00000
C232        C  0.71964426  0.51849741  0.95520958    -0.11900
C233        C  0.77361222  0.52498902  0.95028799     0.02200
C234        C  0.80700815  0.49095510  0.98388465    -0.00100
C235        C  0.78479972  0.45119626  0.02210811    -0.11800
C236        C  0.73117699  0.44660234  0.02862403     0.02100
H237        H  0.69444431  0.54519697  0.92977622     0.15100
H238        H  0.80983755  0.42488123  0.04822994     0.15100
C239        C  0.71051775  0.40748468  0.07042614     0.36700
C240        C  0.79376012  0.56864410  0.91236945     0.36600
N241        N  0.69300007  0.37672909  0.10383324    -0.43600
N242        N  0.80975806  0.60335693  0.88160241    -0.43600
C243        C  0.30342596  0.50929225  0.98884549     0.00000
C244        C  0.28709850  0.54818058  0.01789045    -0.11900
C245        C  0.23357265  0.55298532  0.01971710     0.02200
C246        C  0.19552656  0.51765286  0.99336595    -0.00100
C247        C  0.21159582  0.47919184  0.96440106    -0.11800
C248        C  0.26460778  0.47478170  0.96161843     0.02100
H249        H  0.31609831  0.57546305  0.03832358     0.15100
H250        H  0.18227480  0.45215299  0.94395491     0.15100
C251        C  0.27727198  0.43288226  0.93183378     0.36700
C252        C  0.21821909  0.59531776  0.04716207     0.36600
N253        N  0.28634646  0.39902789  0.90770234    -0.43600
N254        N  0.20520038  0.62922543  0.06867550    -0.43600
C255        C  0.51109719  0.68582596  0.05165033     0.00000
C256        C  0.46494657  0.70373289  0.06480571    -0.11900
C257        C  0.45962416  0.75916013  0.06112842     0.02200
C258        C  0.50008130  0.79678284  0.04223439    -0.00100
C259        C  0.54592707  0.77914196  0.02918863    -0.11800
C260        C  0.55239755  0.72437252  0.03473006     0.02100
H261        H  0.43333728  0.67452925  0.07815482     0.15100
H262        H  0.57709380  0.80864899  0.01517752     0.15100
C263        C  0.60153236  0.70964023  0.02126024     0.36700
C264        C  0.41289000  0.77690529  0.07697284     0.36600
N265        N  0.64130615  0.69859226  0.01092190    -0.43600
N266        N  0.37573050  0.79177571  0.08970159    -0.43600
C267        C  0.52434804  0.18569367  0.98115442     0.00000
C268        C  0.56679744  0.22535132  0.97892386    -0.11900
C269        C  0.55878025  0.27997419  0.96615018     0.02200
C270        C  0.50691744  0.29541441  0.95680797    -0.00100
C271        C  0.46473578  0.25446222  0.95604940    -0.11800
C272        C  0.47313750  0.20003242  0.96768311     0.02100
H273        H  0.60624039  0.21347254  0.98727668     0.15100
H274        H  0.42478564  0.26475989  0.94780213     0.15100
C275        C  0.42876654  0.15925935  0.96607275     0.36700
C276        C  0.60481313  0.31837905  0.96350672     0.36600
N277        N  0.39378669  0.12603106  0.96450940    -0.43600
N278        N  0.64219544  0.34846001  0.96124628    -0.43600
C279        C  0.47925401  0.81310645  0.50431017     0.00000
C280        C  0.44015150  0.77591916  0.48203704    -0.11900
C281        C  0.44406915  0.71976202  0.49029114     0.02200
C282        C  0.48783685  0.69919124  0.52204461    -0.00100
C283        C  0.52507630  0.73619478  0.54706261    -0.11800
C284        C  0.52121656  0.79219645  0.53874256     0.02100
H285        H  0.40729243  0.79080066  0.45593277     0.15100
H286        H  0.55826318  0.72141745  0.57270120     0.15100
C287        C  0.56100139  0.82695942  0.56650840     0.36700
C288        C  0.40432497  0.68504528  0.46241967     0.36600
N289        N  0.59279686  0.85488834  0.58876387    -0.43600
N290        N  0.37249761  0.65752742  0.43970122    -0.43600
C291        C  0.50436100  0.28661583  0.49042892     0.00000
C292        C  0.54201835  0.27136542  0.53281688    -0.11900
C293        C  0.54796654  0.21660854  0.55026155     0.02200
C294        C  0.51581325  0.17527363  0.52506715    -0.00100
C295        C  0.47960015  0.19075619  0.48109173    -0.11800
C296        C  0.47394198  0.24557356  0.46353690     0.02100
H297        H  0.56546172  0.30234489  0.55410677     0.15100
H298        H  0.45551521  0.15990354  0.46019958     0.15100
C299        C  0.43740378  0.25894448  0.41710016     0.36700
C300        C  0.58561497  0.20434653  0.59594920     0.36600
N301        N  0.40855572  0.27075645  0.37988251    -0.43600
N302        N  0.61580115  0.19440344  0.63253324    -0.43600
C303        C  0.47607012  0.99980246  0.71609795     0.00000
C304        C  0.43844295  0.02643346  0.73561750    -0.11900
C305        C  0.43128834  0.01874739  0.79076574     0.02200
C306        C  0.46210966  0.98380677  0.82619564    -0.00100
C307        C  0.49620034  0.95380762  0.80558158    -0.11800
C308        C  0.50345062  0.96149358  0.75098005     0.02100
H309        H  0.41717360  0.05547444  0.70863247     0.15100
H310        H  0.52006781  0.92722107  0.83292838     0.15100
C311        C  0.54065746  0.93083375  0.73211793     0.36700
C312        C  0.39487834  0.04953873  0.81055574     0.36600
N313        N  0.57052107  0.90634490  0.71710939    -0.43600
N314        N  0.36548151  0.07439675  0.82584269    -0.43600
C315        C  0.52278116  0.97478533  0.31716674     0.00000
C316        C  0.48982735  0.94596162  0.28007931    -0.11900
C317        C  0.49734555  0.95333326  0.22559024     0.02200
C318        C  0.54033093  0.98826497  0.20752555    -0.00100
C319        C  0.57442235  0.01611617  0.24446738    -0.11800
C320        C  0.56546832  0.01056024  0.29904307     0.02100
H321        H  0.45666240  0.91887999  0.29331596     0.15100
H322        H  0.60695011  0.04349106  0.23023485     0.15100
C323        C  0.59814317  0.04496360  0.33422601     0.36700
C324        C  0.45852817  0.92665893  0.18893356     0.36600
N325        N  0.62380049  0.07282121  0.36248151    -0.43600
N326        N  0.42703443  0.90524879  0.16006746    -0.43600
C327        C  0.80340074  0.47775392  0.51965700     0.00000
C328        C  0.76858629  0.45349286  0.48051387    -0.11900
C329        C  0.71458825  0.45201490  0.48140149     0.02200
C330        C  0.69431298  0.47584031  0.52211207    -0.00100
C331        C  0.72938311  0.49679611  0.56344235    -0.11800
C332        C  0.78350865  0.49764333  0.56268340     0.02100
H333        H  0.78364073  0.43712387  0.44779763     0.15100
H334        H  0.71471036  0.51364737  0.59604812     0.15100
C335        C  0.81747083  0.51744655  0.60731061     0.36700
C336        C  0.68155321  0.42654396  0.43931339     0.36600
N337        N  0.84431692  0.53273529  0.64358944    -0.43600
N338        N  0.65498566  0.40607397  0.40574133    -0.43600
C339        C  0.19307411  0.52647934  0.46794127     0.00000
C340        C  0.22844556  0.55229446  0.50552275    -0.11900
C341        C  0.28175236  0.54635889  0.50955048     0.02200
C342        C  0.30092862  0.51448694  0.47459867    -0.00100
C343        C  0.26551751  0.48981406  0.43589144    -0.11800
C344        C  0.21196913  0.49510742  0.43256681     0.02100
H345        H  0.21415059  0.57596233  0.53330049     0.15100
H346        H  0.27941779  0.46528049  0.40866941     0.15100
C347        C  0.17775856  0.46844611  0.39211340     0.36700
C348        C  0.31520400  0.57311302  0.55046911     0.36600
N349        N  0.15072374  0.44692432  0.35957111    -0.43600
N350        N  0.34205275  0.59427703  0.58338190    -0.43600
C351        C  0.00264305  0.55253612  0.68554154     0.00000
C352        C  0.99821490  0.50025119  0.71316964    -0.11900
C353        C  0.99463967  0.49282826  0.76845731     0.02200
C354        C  0.99244738  0.53819516  0.79567420    -0.00100
C355        C  0.99504169  0.59044158  0.76791680    -0.11800
C356        C  0.00202935  0.59815796  0.71304264     0.02100
H357        H  0.99960490  0.46533590  0.69174324     0.15100
H358        H  0.99468379  0.62511916  0.78993879     0.15100
C359        C  0.01008522  0.65278448  0.68694251     0.36700
C360        C  0.99571008  0.43896398  0.79699622     0.36600
N361        N  0.01715342  0.69710246  0.66745487    -0.43600
N362        N  0.99695341  0.39609920  0.82032293    -0.43600
C363        C  0.99588039  0.47935418  0.29034557     0.00000
C364        C  0.03326569  0.51895243  0.26887517    -0.11900
C365        C  0.04078339  0.52346200  0.21426485     0.02200
C366        C  0.01161697  0.48672182  0.18154014    -0.00100
C367        C  0.97749272  0.44450404  0.20394911    -0.11800
C368        C  0.96834374  0.44133890  0.25789313     0.02100
H369        H  0.05458461  0.54798137  0.29414055     0.15100
H370        H  0.95550276  0.41624347  0.17824274     0.15100
C371        C  0.92926262  0.40017540  0.27826562     0.36700
C372        C  0.07648462  0.56721690  0.19201846     0.36600
N373        N  0.89736163  0.36773879  0.29431640    -0.43600
N374        N  0.10520986  0.60166253  0.17346800    -0.43600
C375        C  0.18832562  0.01866824  0.50440389     0.00000
C376        C  0.22372574  0.03640848  0.54677720    -0.11900
C377        C  0.27747486  0.03099010  0.54827960     0.02200
C378        C  0.29635099  0.00563020  0.50773432    -0.00100
C379        C  0.26083821  0.98968261  0.46448811    -0.11800
C380        C  0.20765603  0.99680681  0.46209809     0.02100
H381        H  0.20917475  0.05376042  0.57913434     0.15100
H382        H  0.27472969  0.97201261  0.43193234     0.15100
C383        C  0.17358482  0.98207984  0.41536154     0.36700
C384        C  0.31198138  0.05097829  0.59231526     0.36600
N385        N  0.14636998  0.97079403  0.37768036    -0.43600
N386        N  0.33983029  0.06759619  0.62721942    -0.43600
C387        C  0.69891384  0.99610221  0.51288666     0.00000
C388        C  0.71382151  0.99059972  0.46165135    -0.11900
C389        C  0.76693831  0.99388161  0.45280652     0.02200
C390        C  0.80602938  0.99892180  0.49657778    -0.00100
C391        C  0.79079749  0.00149451  0.54824761    -0.11800
C392        C  0.73816230  0.00199239  0.55637594     0.02100
H393        H  0.68407089  0.98681306  0.42785372     0.15100
H394        H  0.82056921  0.00554263  0.58201377     0.15100
C395        C  0.72580862  0.00942982  0.60972443     0.36700
C396        C  0.78037921  0.99475630  0.39819237     0.36600
N397        N  0.71645015  0.01607617  0.65246823    -0.43600
N398        N  0.79095433  0.99578042  0.35428300    -0.43600
C399        C  0.98776664  0.81348083  0.48904219     0.00000
C400        C  0.95960968  0.77704133  0.52541864    -0.11900
C401        C  0.96018913  0.72069796  0.52674145     0.02200
C402        C  0.99098115  0.69944285  0.49264203    -0.00100
C403        C  0.01768602  0.73583379  0.45489632    -0.11800
C404        C  0.01552169  0.79215758  0.45221020     0.02100
H405        H  0.93795039  0.79276465  0.55374831     0.15100
H406        H  0.04136747  0.72026871  0.42830077     0.15100
C407        C  0.04279569  0.82751407  0.41193840     0.36700
C408        C  0.93117393  0.68558159  0.56570655     0.36600
N409        N  0.06453956  0.85603756  0.37972470    -0.43600
N410        N  0.90784918  0.65717866  0.59673772    -0.43600
C411        C  0.00463192  0.21324859  0.48223122     0.00000
C412        C  0.03337305  0.24614047  0.51922986    -0.11900
C413        C  0.03030117  0.30268994  0.51396456     0.02200
C414        C  0.99646403  0.32727899  0.47180283    -0.00100
C415        C  0.96930486  0.29417635  0.43409801    -0.11800
C416        C  0.97344655  0.23844865  0.43852236     0.02100
H417        H  0.05776821  0.22742056  0.55281105     0.15100
H418        H  0.94442363  0.31197928  0.40037793     0.15100
C419        C  0.94453844  0.20785444  0.39765774     0.36700
C420        C  0.06168110  0.33357239  0.55300393     0.36600
N421        N  0.92100152  0.18348110  0.36502624    -0.43600
N422        N  0.08773761  0.35720378  0.58466519    -0.43600
loop_ 
_geom_bond_atom_site_label_1 
_geom_bond_atom_site_label_2 
_geom_bond_distance 
_geom_bond_site_symmetry_2 
_ccdc_geom_bond_type 
N1            C6   1.358       .  A
N1            C5   1.357       .  A
N1           H33   1.037       .  S
N2            C9   1.352       .  A
N2           C10   1.355       .  A
N3            C8   1.354       .  A
N3            C7   1.357       .  A
N3           H34   1.040       .  S
N4           C11   1.356       .  A
N4           C12   1.354       .  A
C5           C13   1.390       .  A
C5           C21   1.427       .  A
C6           C22   1.423   1_655  A
C6           C14   1.385       .  A
C7           C15   1.386       .  A
C7           C24   1.419   1_455  A
C8           C23   1.418   1_565  A
C8           C16   1.388       .  A
C9           C21   1.419   1_565  A
C9           C17   1.388       .  A
C10          C24   1.417       .  A
C10          C18   1.384       .  A
C11          C19   1.386       .  A
C11          C22   1.421       .  A
C12          C20   1.386       .  A
C12          C23   1.418       .  A
C13          C14   1.373       .  A
C13          H25   1.081       .  S
C14          H26   1.082       .  S
C15          C16   1.376       .  A
C15          H27   1.082       .  S
C16          H28   1.083       .  S
C17          C18   1.373       .  A
C17          H29   1.081       .  S
C18          H30   1.082       .  S
C19          C20   1.377       .  A
C19          H31   1.082       .  S
C20          H32   1.082       .  S
C21         C390   1.498   1_545  S
C22         C411   1.510       .  S
C23         C375   1.496       .  S
C24         C399   1.508       .  S
O35         Ni41   1.925       .  S
O35          C56   1.272       .  A
O36         Ni59   1.909       .  S
O36          C45   1.270       .  A
O37         Ni41   1.897       .  S
O37         Ni59   1.893   1_455  S
O37         Ni53   1.895       .  S
O37          H60   0.967       .  S
C38         C363   1.451       .  S
C38          O55   1.274   1_655  A
C38          O47   1.277       .  A
O39         Ni58   1.914       .  S
O39          C45   1.268       .  A
O40         Ni58   1.911       .  S
O40          C42   1.269       .  A
Ni41         O44   1.929       .  S
Ni41         O46   1.908       .  S
C42         C414   1.505       .  S
C42          O52   1.275   1_655  A
O43         Ni59   1.877       .  S
O43          C49   1.271   1_655  A
O44          C49   1.279       .  A
C45         C327   1.472       .  S
O46          C48   1.267       .  A
O47         Ni58   1.903       .  S
C48         C402   1.496   1_455  S
C48          O54   1.279   1_455  A
C49         C351   1.443       .  S
H50          O51   0.967       .  S
O51         Ni59   1.897       .  S
O51         Ni53   1.892   1_655  S
O51         Ni58   1.892       .  S
O52         Ni53   1.952       .  S
Ni53         O57   1.892       .  S
Ni53         O55   1.901       .  S
O54         Ni59   1.957       .  S
C56         C339   1.472       .  S
C56          O57   1.265       .  A
O61         Ni67   1.926       .  S
O61          C82   1.270   1_545  A
O62         Ni85   1.912       .  S
O62          C71   1.268   1_545  A
O63         Ni67   1.913   1_565  S
O63         Ni85   1.916   1_565  S
O63         Ni79   1.892       .  S
O63          H86   0.972       .  S
C64         C315   1.467       .  S
C64          O81   1.267       .  A
C64          O73   1.275       .  A
O65         Ni84   1.927       .  S
O65          C71   1.271       .  A
O66         Ni84   1.912       .  S
O66          C68   1.270       .  A
Ni67         O70   1.906       .  S
Ni67         O72   1.916       .  S
C68         C279   1.501       .  S
C68          O78   1.275       .  A
O69         Ni85   1.905       .  S
O69          C75   1.272       .  A
O70          C75   1.274       .  A
C71         C378   1.492   1_565  S
O72          C74   1.269       .  A
O73         Ni84   1.912       .  S
C74         C294   1.498       .  S
C74          O80   1.271       .  A
C75         C303   1.458   1_545  S
H76          O77   0.965       .  S
O77         Ni85   1.896       .  S
O77         Ni79   1.912   1_545  S
O77         Ni84   1.910   1_545  S
O78         Ni79   1.938       .  S
Ni79         O83   1.915       .  S
Ni79         O81   1.885       .  S
O80         Ni85   1.929       .  S
C82         C387   1.483       .  S
C82          O83   1.268       .  A
N87          C92   1.345       .  A
N87          C91   1.347       .  A
N87         H119   1.042       .  S
N88          C95   1.343       .  A
N88          C96   1.342       .  A
N89          C94   1.348       .  A
N89          C93   1.347       .  A
N89         H120   1.042       .  S
N90          C97   1.345       .  A
N90          C98   1.344       .  A
C91          C99   1.390       .  A
C91         C107   1.408       .  A
C92         C108   1.396       .  A
C92         C100   1.382       .  A
C93         C101   1.390       .  A
C93         C110   1.411   1_545  A
C94         C109   1.397       .  A
C94         C102   1.382       .  A
C95         C107   1.404   1_556  A
C95         C103   1.387       .  A
C96         C110   1.405       .  A
C96         C104   1.387       .  A
C97         C105   1.386       .  A
C97         C108   1.401   1_545  A
C98         C106   1.385       .  A
C98         C109   1.400   1_554  A
C99         C100   1.374       .  A
C99         H111   1.082       .  S
C100        H112   1.082       .  S
C101        C102   1.372       .  A
C101        H113   1.082       .  S
C102        H114   1.082       .  S
C103        C104   1.378       .  A
C103        H115   1.082       .  S
C104        H116   1.082       .  S
C105        C106   1.377       .  A
C105        H117   1.082       .  S
C106        H118   1.082       .  S
C107        C258   1.469       .  S
C108        C318   1.472       .  S
C109        C267   1.469       .  S
C110        C306   1.471       .  S
N121        C126   1.355       .  A
N121        C125   1.344       .  A
N121        H153   1.041       .  S
N122        C129   1.341       .  A
N122        C130   1.349       .  A
N123        C128   1.344       .  A
N123        C127   1.355       .  A
N123        H154   1.040       .  S
N124        C131   1.352       .  A
N124        C132   1.342       .  A
C125        C133   1.391       .  A
C125        C141   1.411   1_655  A
C126        C142   1.411   1_554  A
C126        C134   1.385       .  A
C127        C135   1.381       .  A
C127        C144   1.406       .  A
C128        C143   1.411   1_455  A
C128        C136   1.393       .  A
C129        C141   1.403       .  A
C129        C137   1.389       .  A
C130        C144   1.402   1_554  A
C130        C138   1.383       .  A
C131        C139   1.383       .  A
C131        C142   1.410       .  A
C132        C140   1.389       .  A
C132        C143   1.408       .  A
C133        C134   1.374       .  A
C133        H145   1.083       .  S
C134        H146   1.082       .  S
C135        C136   1.371       .  A
C135        H147   1.083       .  S
C136        H148   1.081       .  S
C137        C138   1.373       .  A
C137        H149   1.082       .  S
C138        H150   1.082       .  S
C139        C140   1.374       .  A
C139        H151   1.082       .  S
C140        H152   1.082       .  S
C141        C366   1.462       .  S
C142        C234   1.502       .  S
C143        C354   1.457       .  S
C144        C246   1.489       .  S
O155       Ni161   1.925       .  S
O155        C176   1.274       .  A
O156       Ni179   1.906       .  S
O156        C165   1.268   1_556  A
O157       Ni161   1.897       .  S
O157       Ni179   1.904       .  S
O157       Ni173   1.918   1_556  S
O157        H180   0.967   1_556  S
C158        C255   1.469       .  S
C158        O175   1.282       .  A
C158        O167   1.279       .  A
O159       Ni178   1.931       .  S
O159        C165   1.275       .  A
O160       Ni178   1.930       .  S
O160        C162   1.272       .  A
Ni161       O164   1.920       .  S
Ni161       O166   1.933       .  S
C162        C219   1.550       .  S
C162        O172   1.290       .  A
O163       Ni179   1.911       .  S
O163        C169   1.275       .  A
O164        C169   1.280       .  A
C165        C231   1.477   1_554  S
O166        C168   1.271       .  A
O167       Ni178   1.912       .  S
C168        C210   1.541       .  S
C168        O174   1.286       .  A
C169        C270   1.487       .  S
H170        O171   0.967   1_556  S
O171       Ni179   1.899   1_554  S
O171       Ni173   1.899       .  S
O171       Ni178   1.898       .  S
O172       Ni173   1.996       .  S
Ni173       O177   1.928       .  S
Ni173       O175   1.914       .  S
O174       Ni179   1.980       .  S
C176        C243   1.493       .  S
C176        O177   1.277   1_556  A
O181       Ni187   1.928       .  S
O181        C202   1.276       .  A
O182       Ni205   1.890       .  S
O182        C191   1.269       .  A
O183       Ni187   1.895       .  S
O183       Ni205   1.884       .  S
O183       Ni199   1.913       .  S
O183        H206   0.967       .  S
C184        C282   1.501       .  S
C184        O201   1.282       .  A
C184        O193   1.280       .  A
O185       Ni204   1.928       .  S
O185        C191   1.274       .  A
O186       Ni204   1.921       .  S
O186        C188   1.269       .  A
Ni187       O190   1.928       .  S
Ni187       O192   1.929       .  S
C188        C207   1.541       .  S
C188        O198   1.288       .  A
O189       Ni205   1.931       .  S
O189        C195   1.282       .  A
O190        C195   1.281       .  A
C191        C330   1.483       .  S
O192        C194   1.271       .  A
O193       Ni204   1.928       .  S
C194        C222   1.548       .  S
C194        O200   1.291       .  A
C195        C291   1.492       .  S
H196        O197   0.967       .  S
O197       Ni205   1.921       .  S
O197       Ni199   1.893       .  S
O197       Ni204   1.903       .  S
O198       Ni199   1.990       .  S
Ni199       O203   1.890       .  S
Ni199       O201   1.937       .  S
O200       Ni205   1.998       .  S
C202        C342   1.480       .  S
C202        O203   1.270       .  A
C207        C208   1.409       .  A
C207        C212   1.432       .  A
C208        C209   1.423       .  A
C208        H213   1.084       .  S
C209        C210   1.431       .  A
C209        C216   1.443       .  S
C210        C211   1.410       .  A
C211        C212   1.422       .  A
C211        H214   1.084       .  S
C212        C215   1.444       .  S
C215        N217   1.158       .  T
C216        N218   1.157       .  T
C219        C220   1.412       .  A
C219        C224   1.433       .  A
C220        C221   1.426       .  A
C220        H225   1.084       .  S
C221        C222   1.432       .  A
C221        C228   1.443       .  S
C222        C223   1.411       .  A
C223        C224   1.426       .  A
C223        H226   1.084       .  S
C224        C227   1.443       .  S
C227        N229   1.157       .  T
C228        N230   1.157       .  T
C231        C232   1.403       .  A
C231        C236   1.407   1_556  A
C232        C233   1.403       .  A
C232        H237   1.085       .  S
C233        C234   1.416       .  A
C233        C240   1.444       .  S
C234        C235   1.410   1_556  A
C235        C236   1.403       .  A
C235        H238   1.084       .  S
C236        C239   1.444       .  S
C239        N241   1.157       .  T
C240        N242   1.157       .  T
C243        C244   1.410   1_556  A
C243        C248   1.420       .  A
C244        C245   1.408       .  A
C244        H249   1.084       .  S
C245        C246   1.410   1_554  A
C245        C252   1.444       .  S
C246        C247   1.397       .  A
C247        C248   1.397       .  A
C247        H250   1.085       .  S
C248        C251   1.444       .  S
C251        N253   1.157       .  T
C252        N254   1.157       .  T
C255        C256   1.405       .  A
C255        C260   1.418       .  A
C256        C257   1.399       .  A
C256        H261   1.085       .  S
C257        C258   1.406       .  A
C257        C264   1.443       .  S
C258        C259   1.394       .  A
C259        C260   1.387       .  A
C259        H262   1.086       .  S
C260        C263   1.446       .  S
C263        N265   1.158       .  T
C264        N266   1.157       .  T
C267        C268   1.394       .  A
C267        C272   1.405       .  A
C268        C269   1.397       .  A
C268        H273   1.085       .  S
C269        C270   1.423       .  A
C269        C276   1.444       .  S
C270        C271   1.409       .  A
C271        C272   1.393       .  A
C271        H274   1.084       .  S
C272        C275   1.446       .  S
C275        N277   1.157       .  T
C276        N278   1.157       .  T
C279        C280   1.410       .  A
C279        C284   1.416       .  A
C280        C281   1.408       .  A
C280        H285   1.084       .  S
C281        C282   1.417       .  A
C281        C288   1.445       .  S
C282        C283   1.409       .  A
C283        C284   1.404       .  A
C283        H286   1.085       .  S
C284        C287   1.445       .  S
C287        N289   1.157       .  T
C288        N290   1.158       .  T
C291        C292   1.405       .  A
C291        C296   1.413       .  A
C292        C293   1.405       .  A
C292        H297   1.085       .  S
C293        C294   1.417       .  A
C293        C300   1.444       .  S
C294        C295   1.410       .  A
C295        C296   1.406       .  A
C295        H298   1.085       .  S
C296        C299   1.445       .  S
C299        N301   1.158       .  T
C300        N302   1.157       .  T
C303        C304   1.400   1_565  A
C303        C308   1.411       .  A
C304        C305   1.399       .  A
C304        H309   1.083       .  S
C305        C306   1.412   1_545  A
C305        C312   1.444       .  S
C306        C307   1.396       .  A
C307        C308   1.386       .  A
C307        H310   1.086       .  S
C308        C311   1.446       .  S
C311        N313   1.157       .  T
C312        N314   1.157       .  T
C315        C316   1.400       .  A
C315        C320   1.417   1_565  A
C316        C317   1.385       .  A
C316        H321   1.085       .  S
C317        C318   1.412       .  A
C317        C324   1.446       .  S
C318        C319   1.399   1_565  A
C319        C320   1.397       .  A
C319        H322   1.085       .  S
C320        C323   1.445       .  S
C323        N325   1.158       .  T
C324        N326   1.157       .  T
C327        C328   1.403       .  A
C327        C332   1.408       .  A
C328        C329   1.394       .  A
C328        H333   1.085       .  S
C329        C330   1.416       .  A
C329        C336   1.446       .  S
C330        C331   1.410       .  A
C331        C332   1.399       .  A
C331        H334   1.084       .  S
C332        C335   1.445       .  S
C335        N337   1.157       .  T
C336        N338   1.158       .  T
C339        C340   1.402       .  A
C339        C344   1.411       .  A
C340        C341   1.394       .  A
C340        H345   1.085       .  S
C341        C342   1.415       .  A
C341        C348   1.445       .  S
C342        C343   1.408       .  A
C343        C344   1.397       .  A
C343        H346   1.085       .  S
C344        C347   1.445       .  S
C347        N349   1.158       .  T
C348        N350   1.157       .  T
C351        C352   1.400   1_455  A
C351        C356   1.406       .  A
C352        C353   1.384       .  A
C352        H357   1.086       .  S
C353        C354   1.403       .  A
C353        C360   1.446       .  S
C354        C355   1.400       .  A
C355        C356   1.391   1_655  A
C355        H358   1.085       .  S
C356        C359   1.442       .  S
C359        N361   1.157       .  T
C360        N362   1.157       .  T
C363        C364   1.403   1_655  A
C363        C368   1.408       .  A
C364        C365   1.390       .  A
C364        H369   1.085       .  S
C365        C366   1.406       .  A
C365        C372   1.446       .  S
C366        C367   1.399   1_455  A
C367        C368   1.386       .  A
C367        H370   1.085       .  S
C368        C371   1.444       .  S
C371        N373   1.157       .  T
C372        N374   1.157       .  T
C375        C376   1.404       .  A
C375        C380   1.411   1_545  A
C376        C377   1.407       .  A
C376        H381   1.084       .  S
C377        C378   1.417       .  A
C377        C384   1.442       .  S
C378        C379   1.407   1_545  A
C379        C380   1.400       .  A
C379        H382   1.085       .  S
C380        C383   1.444       .  S
C383        N385   1.157       .  T
C384        N386   1.157       .  T
C387        C388   1.405       .  A
C387        C392   1.414   1_565  A
C388        C389   1.406       .  A
C388        H393   1.085       .  S
C389        C390   1.414       .  A
C389        C396   1.443       .  S
C390        C391   1.403   1_565  A
C391        C392   1.399       .  A
C391        H394   1.085       .  S
C392        C395   1.444       .  S
C395        N397   1.157       .  T
C396        N398   1.157       .  T
C399        C400   1.406       .  A
C399        C404   1.415   1_655  A
C400        C401   1.407       .  A
C400        H405   1.084       .  S
C401        C402   1.414       .  A
C401        C408   1.443       .  S
C402        C403   1.408   1_655  A
C403        C404   1.409       .  A
C403        H406   1.084       .  S
C404        C407   1.445       .  S
C407        N409   1.157       .  T
C408        N410   1.157       .  T
C411        C412   1.409       .  A
C411        C416   1.412   1_455  A
C412        C413   1.415       .  A
C412        H417   1.084       .  S
C413        C414   1.419   1_455  A
C413        C420   1.442       .  S
C414        C415   1.409       .  A
C415        C416   1.400       .  A
C415        H418   1.085       .  S
C416        C419   1.444       .  S
C419        N421   1.157       .  T
C420        N422   1.157       .  T
