geometry optimzed in LAMMPS
_audit_creation_date              2020-12-01 
_audit_creation_method            'lammps2cif' 
_symmetry_space_group_name_H-M    'P1' 
_symmetry_Int_Tables_number       1 
_symmetry_cell_setting            triclinic 
loop_ 
_symmetry_equiv_pos_as_xyz 
  x,y,z 
_cell_length_a                    34.15801288 
_cell_length_b                    34.17445382665652 
_cell_length_c                    104.07955174729182 
_cell_angle_alpha                 90.159971910432 
_cell_angle_beta                  89.83427224051675 
_cell_angle_gamma                 120.29316951175164 
loop_ 
_atom_site_label 
_atom_site_type_symbol 
_atom_site_fract_x 
_atom_site_fract_y 
_atom_site_fract_z 
_atom_site_charge 
O1          O  0.75869831  0.80753727  0.35651687    -0.54300
C2          C  0.86023262  0.81611350  0.38127334     0.78300
O3          O  0.79197099  0.89160044  0.39112550    -0.55500
C4          C  0.72771726  0.81752308  0.35724961     0.78300
C5          C  0.71837885  0.74675506  0.39576844     0.80700
Cd6        Cd  0.77922573  0.82181842  0.37962044     1.37500
O7          O  0.83635879  0.80364960  0.37115356    -0.54300
O8          O  0.73054063  0.74108825  0.38477333    -0.53100
C9          C  0.82250282  0.91809609  0.38333472     0.80600
O10         O  0.73304250  0.78727428  0.39936215    -0.55500
O11         O  0.84599130  0.82940687  0.39056465    -0.53900
O12         O  0.71929738  0.82729294  0.36824708    -0.53900
O13         O  0.83224971  0.90018851  0.37418503    -0.53100
O14         O  0.60579659  0.50206236  0.47164319    -0.54300
C15         C  0.70052661  0.49507841  0.44694914     0.78300
O16         O  0.55566914  0.41841675  0.43703324    -0.55500
C17         C  0.56467916  0.49180601  0.47084693     0.78300
C18         C  0.62710728  0.56294148  0.43244626     0.80700
Cd19       Cd  0.61304151  0.48816381  0.44854375     1.37500
O20         O  0.68856706  0.50690953  0.45709969    -0.54300
O21         O  0.64398332  0.56877851  0.44356170    -0.53100
C22         C  0.55988117  0.39196797  0.44470421     0.80600
O23         O  0.60237187  0.52236091  0.42869455    -0.55500
O24         O  0.67324013  0.48193688  0.43760962    -0.53900
O25         O  0.54675588  0.48178361  0.45983019    -0.53900
O26         O  0.58784017  0.40988824  0.45378667    -0.53100
O27         O  0.92070178  0.39054802  0.47147097    -0.54300
C28         C  0.81840161  0.29611412  0.44681537     0.78300
O29         O  0.88657482  0.43993459  0.43687495    -0.55500
C30         C  0.95177249  0.43171419  0.47070843     0.78300
C31         C  0.95988393  0.36830485  0.43223982     0.80700
Cd32       Cd  0.89966781  0.38341036  0.44840061     1.37500
O33         O  0.84237753  0.30788352  0.45691811    -0.54300
O34         O  0.94682885  0.34998593  0.44313792    -0.53100
C35         C  0.85615775  0.43582736  0.44470716     0.80600
O36         O  0.94640898  0.39505429  0.42873941    -0.55500
O37         O  0.83257051  0.32362872  0.43752580    -0.53900
O38         O  0.96002184  0.44971462  0.45970082    -0.53900
O39         O  0.84661667  0.40835843  0.45387694    -0.53100
O40         O  0.07147766  0.23671495  0.35623720    -0.54300
C41         C  0.97823301  0.13399846  0.38103992     0.78300
O42         O  0.12293159  0.20272720  0.39043422    -0.55500
C43         C  0.11271464  0.26772433  0.35689600     0.78300
C44         C  0.05136010  0.27577273  0.39552745     0.80700
Cd45       Cd  0.06551729  0.21526539  0.37924171     1.37500
O46         O  0.98993930  0.15748992  0.37084758    -0.54300
O47         O  0.03351990  0.26361798  0.38454385    -0.53100
C48         C  0.11854210  0.17221248  0.38260786     0.80600
O49         O  0.07720522  0.26122779  0.39906385    -0.55500
O50         O  0.00573762  0.14870870  0.39032916    -0.53900
O51         O  0.13130953  0.27559585  0.36781549    -0.53900
O52         O  0.09052952  0.16235097  0.37356503    -0.53100
O53         O  0.18629615  0.92244196  0.35644900    -0.54300
C54         C  0.17933118  0.01771064  0.38077342     0.78300
O55         O  0.10242400  0.87340763  0.39099727    -0.55500
C56         C  0.17595162  0.88134955  0.35735570     0.78300
C57         C  0.24707254  0.94481610  0.39570675     0.80700
Cd58       Cd  0.17241723  0.93031257  0.37948516     1.37500
O59         O  0.19148240  0.00556281  0.37072059    -0.54300
O60         O  0.25303898  0.96203101  0.38463488    -0.53100
C61         C  0.07610121  0.87759049  0.38326461     0.80600
O62         O  0.20643143  0.91958992  0.39936118    -0.55500
O63         O  0.16594703  0.99066435  0.39017134    -0.53900
O64         O  0.16603732  0.86376606  0.36841457    -0.53900
O65         O  0.09419415  0.90536728  0.37415012    -0.53100
O66         O  0.49243085  0.07570684  0.47154412    -0.54300
C67         C  0.49987632  0.17686319  0.44681595     0.78300
O68         O  0.57621552  0.10866053  0.43707373    -0.55500
C69         C  0.50198857  0.04445048  0.47072654     0.78300
C70         C  0.43098902  0.03575105  0.43240248     0.80700
Cd71       Cd  0.50634032  0.09634299  0.44846187     1.37500
O72         O  0.48823525  0.15338186  0.45701015    -0.54300
O73         O  0.42552476  0.04735311  0.44349976    -0.53100
C74         C  0.60267408  0.13977520  0.44472494     0.80600
O75         O  0.47146148  0.05083456  0.42866753    -0.55500
O76         O  0.51281692  0.16250504  0.43746910    -0.53900
O77         O  0.51142587  0.03597294  0.45969066    -0.53900
O78         O  0.58470574  0.15007989  0.45373318    -0.53100
O79         O  0.08807489  0.47036461  0.02256099    -0.54300
C80         C  0.18937828  0.47832088  0.04754051     0.78300
O81         O  0.12191394  0.55421972  0.05726594    -0.55500
C82         C  0.05738854  0.48077197  0.02327734     0.78300
C83         C  0.04723394  0.40910852  0.06167716     0.80700
Cd84       Cd  0.10859147  0.48440122  0.04567810     1.37500
O85         O  0.16586604  0.46615254  0.03734994    -0.54300
O86         O  0.05996335  0.40358250  0.05074963    -0.53100
C87         C  0.15244187  0.58065193  0.04946224     0.80600
O88         O  0.06152869  0.44957971  0.06525709    -0.55500
O89         O  0.17488925  0.49151486  0.05679556    -0.53900
O90         O  0.04909705  0.49068572  0.03427286    -0.53900
O91         O  0.16197182  0.56268681  0.04027926    -0.53100
O92         O  0.93623261  0.16792646  0.13841163    -0.54300
C93         C  0.02961308  0.15939107  0.11366904     0.78300
O94         O  0.88486518  0.08227747  0.10411372    -0.55500
C95         C  0.89514231  0.15782835  0.13774315     0.78300
C96         C  0.95579047  0.22644056  0.09882422     0.80700
Cd97       Cd  0.94226058  0.15275047  0.11534522     1.37500
O98         O  0.01842144  0.17277309  0.12365929    -0.54300
O99         O  0.97379383  0.23302397  0.10979957    -0.53100
C100        C  0.88886915  0.05626121  0.11200470     0.80600
O101        O  0.93010707  0.18561443  0.09541468    -0.55500
O102        O  0.00160068  0.14478594  0.10450151    -0.53900
O103        O  0.87672529  0.14746121  0.12679335    -0.53900
O104        O  0.91666164  0.07471260  0.12109997    -0.53100
O105        O  0.40220689  0.90035465  0.02306611    -0.54300
C106        C  0.30772089  0.79694526  0.04741746     0.78300
O107        O  0.45162827  0.86574098  0.05755411    -0.55500
C108        C  0.44328107  0.93162926  0.02391232     0.78300
C109        C  0.37930524  0.93824672  0.06232016     0.80700
Cd110      Cd  0.39484269  0.87853893  0.04606266     1.37500
O111        O  0.31964842  0.82104326  0.03733901    -0.54300
O112        O  0.36236854  0.92664152  0.05121879    -0.53100
C113        C  0.44774168  0.83547731  0.04970525     0.80600
O114        O  0.40483392  0.92349726  0.06599820    -0.55500
O115        O  0.33489555  0.81122783  0.05678365    -0.53900
O116        O  0.46118525  0.93950015  0.03493160    -0.53900
O117        O  0.42038825  0.82598155  0.04050431    -0.53100
O118        O  0.25018369  0.05423707  0.13824238    -0.54300
C119        C  0.14667653  0.95937745  0.11408952     0.78300
O120        O  0.21484104  0.10316576  0.10379346    -0.55500
C121        C  0.28177377  0.09513626  0.13732338     0.78300
C122        C  0.28753761  0.03095046  0.09896486     0.80700
Cd123      Cd  0.22808999  0.04666104  0.11528548     1.37500
O124        O  0.17075705  0.97175023  0.12417118    -0.54300
O125        O  0.27611043  0.01415036  0.11008653    -0.53100
C126        C  0.18494210  0.09958486  0.11174081     0.80600
O127        O  0.27275011  0.05645400  0.09529587    -0.55500
O128        O  0.16088675  0.98620705  0.10464515    -0.53900
O129        O  0.28971857  0.11282831  0.12627435    -0.53900
O130        O  0.17582960  0.07252183  0.12099480    -0.53100
O131        O  0.51700648  0.58691064  0.02358859    -0.54300
C132        C  0.50779517  0.68035429  0.04802671     0.78300
O133        O  0.43129602  0.53586791  0.05794244    -0.55500
C134        C  0.50694530  0.54586791  0.02431681     0.78300
C135        C  0.57564796  0.60766414  0.06311969     0.80700
Cd136      Cd  0.50158837  0.59323445  0.04660461     1.37500
O137        O  0.52045939  0.66864039  0.03799286    -0.54300
O138        O  0.58202756  0.62565289  0.05214794    -0.53100
C139        C  0.40508887  0.53967144  0.05007548     0.80600
O140        O  0.53487342  0.58165430  0.06653751    -0.55500
O141        O  0.49410481  0.65297023  0.05734517    -0.53900
O142        O  0.49651693  0.52759805  0.03528477    -0.53900
O143        O  0.42335514  0.56735562  0.04094933    -0.53100
O144        O  0.81983460  0.73900276  0.13930087    -0.54300
C145        C  0.82800084  0.84073154  0.11452202     0.78300
O146        O  0.90397120  0.77292392  0.10470436    -0.55500
C147        C  0.83032069  0.70839241  0.13854158     0.78300
C148        C  0.75881905  0.69901382  0.10016188     0.80700
Cd149      Cd  0.83414102  0.75998284  0.11622114     1.37500
O150        O  0.81583568  0.81705141  0.12468034    -0.54300
O151        O  0.75329954  0.71092069  0.11120967    -0.53100
C152        C  0.93043539  0.80375751  0.11242571     0.80600
O153        O  0.79931885  0.71393510  0.09648025    -0.55500
O154        O  0.84122800  0.82643287  0.10522918    -0.53900
O155        O  0.84051602  0.70043122  0.12754218    -0.53900
O156        O  0.91248651  0.81362546  0.12154091    -0.53100
O157        O  0.50492063  0.34085775  0.20323050    -0.54300
C158        C  0.39451478  0.21956743  0.18873575     0.78300
O159        O  0.45609462  0.20732105  0.22298988    -0.55500
C160        C  0.52823520  0.35165146  0.21345019     0.78300
C161        C  0.38615355  0.28025447  0.22782990     0.80700
Cd162      Cd  0.44583391  0.26542885  0.21140909     1.37500
O163        O  0.42627255  0.26049416  0.18823997    -0.54300
O164        O  0.39918806  0.29923263  0.21700759    -0.53100
C165        C  0.48706636  0.21115448  0.21543890     0.80600
O166        O  0.39926334  0.25299511  0.23106100    -0.55500
O167        O  0.38533634  0.20072725  0.19963033    -0.53900
O168        O  0.51282819  0.32380918  0.22264419    -0.53900
O169        O  0.49799423  0.23900603  0.20630935    -0.53100
O170        O  0.35921790  0.48958069  0.29140006    -0.54300
C171        C  0.23720525  0.37971785  0.30541232     0.78300
O172        O  0.22690543  0.44305983  0.27122724    -0.55500
C173        C  0.37047624  0.51365032  0.28132523     0.78300
C174        C  0.29832190  0.37163297  0.26637131     0.80700
Cd175      Cd  0.28403609  0.43145785  0.28289832     1.37500
O176        O  0.27841420  0.41079320  0.30598631    -0.54300
O177        O  0.31773175  0.38481680  0.27713335    -0.53100
C178        C  0.23028673  0.47335294  0.27897177     0.80600
O179        O  0.27107511  0.38485508  0.26322192    -0.55500
O180        O  0.21851687  0.37133600  0.29450339    -0.53900
O181        O  0.34304383  0.49899185  0.27202274    -0.53900
O182        O  0.25763638  0.48349677  0.28820337    -0.53100
O183        O  0.85970017  0.48988501  0.20372365    -0.54300
C184        C  0.84605677  0.59842546  0.18978025     0.78300
O185        O  0.77199821  0.53524598  0.22371508    -0.55500
C186        C  0.84671932  0.46567237  0.21377476     0.78300
C187        C  0.91553773  0.60711626  0.22876086     0.80700
Cd188      Cd  0.84144092  0.54694434  0.21224090     1.37500
O189        O  0.85615509  0.56753141  0.18912103    -0.54300
O190        O  0.92199862  0.59567174  0.21775401    -0.53100
C191        C  0.74525582  0.50415193  0.21611014     0.80600
O192        O  0.87476978  0.59210144  0.23215884    -0.55500
O193        O  0.83600333  0.60679144  0.20074400    -0.53900
O194        O  0.83325779  0.47975804  0.22306056    -0.53900
O195        O  0.76288229  0.49356261  0.20707416    -0.53100
O196        O  0.15201311  0.71411015  0.30667465    -0.54300
C197        C  0.16493817  0.62419548  0.28136306     0.78300
O198        O  0.13591915  0.72347204  0.26394408    -0.55500
C199        C  0.16224621  0.75525660  0.30622637     0.78300
C200        C  0.26508571  0.76534844  0.28023659     0.80700
Cd201      Cd  0.16881338  0.71004749  0.28360598     1.37500
O202        O  0.15117390  0.63417440  0.29150262    -0.54300
O203        O  0.24725824  0.73750034  0.28935115    -0.53100
C204        C  0.09511474  0.69634911  0.26709672     0.80600
O205        O  0.23851150  0.76850721  0.27236479    -0.55500
O206        O  0.17862261  0.65266795  0.27231801    -0.53900
O207        O  0.17341057  0.77451700  0.29540185    -0.53900
O208        O  0.08844207  0.67684435  0.27784465    -0.53100
O209        O  0.65067149  0.13547300  0.20372885    -0.54300
C210        C  0.77132749  0.14610232  0.18928576     0.78300
O211        O  0.78488412  0.22231475  0.22314531    -0.55500
C212        C  0.63984752  0.14831396  0.21389385     0.78300
C213        C  0.71208181  0.07940249  0.22861269     0.80700
Cd214      Cd  0.72606750  0.15277381  0.21192025     1.37500
O215        O  0.73013918  0.13577374  0.18885973    -0.54300
O216        O  0.69259108  0.07249517  0.21785421    -0.53100
C217        C  0.78105645  0.24900178  0.21548396     0.80600
O218        O  0.73932587  0.12024049  0.23167771    -0.55500
O219        O  0.79065265  0.15741965  0.20009839    -0.53900
O220        O  0.66770095  0.16142978  0.22309404    -0.53900
O221        O  0.75266295  0.23132207  0.20648877    -0.53100
O222        O  0.50569386  0.84391040  0.29264136    -0.54300
C223        C  0.61613986  0.83244564  0.30632039     0.78300
O224        O  0.55273322  0.75817331  0.27250454    -0.55500
C225        C  0.48198707  0.83164209  0.28248846     0.78300
C226        C  0.62334599  0.90114252  0.26745982     0.80700
Cd227      Cd  0.56367658  0.82706955  0.28402580     1.37500
O228        O  0.58529531  0.84261443  0.30707237    -0.54300
O229        O  0.61173313  0.90762087  0.27844225    -0.53100
C230        C  0.52157219  0.73109664  0.28003719     0.80600
O231        O  0.60869648  0.86041225  0.26411845    -0.55500
O232        O  0.62387276  0.82186205  0.29535262    -0.53900
O233        O  0.49672971  0.81916698  0.27313129    -0.53900
O234        O  0.51054474  0.74829072  0.28909087    -0.53100
O235        O  0.60960980  0.07630783  0.97325855    -0.54300
C236        C  0.70148260  0.17978571  0.94834438     0.78300
O237        O  0.60340354  0.05068701  0.93051005    -0.55500
C238        C  0.56853169  0.04491401  0.97263367     0.78300
C239        C  0.56147644  0.13871413  0.94619596     0.80700
Cd240      Cd  0.61541475  0.09712910  0.95017054     1.37500
O241        O  0.69061918  0.15619136  0.95851264    -0.54300
O242        O  0.58871545  0.14886350  0.95545767    -0.53100
C243        C  0.63097205  0.03796488  0.93375382     0.80600
O244        O  0.55807355  0.10832225  0.93848356    -0.55500
O245        O  0.67379576  0.16453423  0.93910979    -0.53900
O246        O  0.54998489  0.03649250  0.96170171    -0.53900
O247        O  0.64997473  0.05122997  0.94456425    -0.53100
O248        O  0.83965474  0.00950732  0.87043256    -0.54300
C249        C  0.72936564  0.88745092  0.85652064     0.78300
O250        O  0.79383659  0.87742898  0.89052085    -0.55500
C251        C  0.86376070  0.02074963  0.88050260     0.78300
C252        C  0.72220441  0.94897777  0.89553966     0.80700
Cd253      Cd  0.78162859  0.93432363  0.87894877     1.37500
O254        O  0.76027163  0.92871270  0.85593432    -0.54300
O255        O  0.73522899  0.96816581  0.88474572    -0.53100
C256        C  0.82403592  0.88098235  0.88270080     0.80600
O257        O  0.73535686  0.92168544  0.89870106    -0.55500
O258        O  0.72137586  0.86868569  0.86741451    -0.53900
O259        O  0.84919921  0.99326376  0.88979102    -0.53900
O260        O  0.83378519  0.90824536  0.87346626    -0.53100
O261        O  0.48585236  0.30229465  0.95821989    -0.54300
C262        C  0.49550082  0.42243360  0.97274405     0.78300
O263        O  0.57195161  0.43663641  0.93885161    -0.55500
C264        C  0.49897111  0.29178356  0.94805161     0.78300
C265        C  0.42914663  0.36320178  0.93340498     0.80700
Cd266      Cd  0.50264696  0.37758733  0.95009653     1.37500
O267        O  0.48515716  0.38125719  0.97313060    -0.54300
O268        O  0.42231109  0.34367422  0.94415411    -0.53100
C269        C  0.59881257  0.43317352  0.94653487     0.80600
O270        O  0.46996089  0.39065574  0.93035265    -0.55500
O271        O  0.50703574  0.44193481  0.96195887    -0.53900
O272        O  0.51209389  0.31978630  0.93889192    -0.53900
O273        O  0.58132181  0.40491536  0.95556893    -0.53100
O274        O  0.19245428  0.23626359  0.85485556    -0.54300
C275        C  0.18201520  0.13315114  0.87940379     0.78300
O276        O  0.21025848  0.25965986  0.89780977    -0.55500
C277        C  0.18205535  0.26693248  0.85559584     0.78300
C278        C  0.08102730  0.17227593  0.88198689     0.80700
Cd279      Cd  0.17701650  0.21462466  0.87791148     1.37500
O280        O  0.19383041  0.15671112  0.86922487    -0.54300
O281        O  0.09822796  0.16136407  0.87290830    -0.53100
C282        C  0.25102752  0.27437198  0.89447681     0.80600
O283        O  0.10810951  0.20341780  0.88951878    -0.55500
O284        O  0.16978438  0.14793289  0.88880652    -0.53900
O285        O  0.17142064  0.27460852  0.86656444    -0.53900
O286        O  0.25758065  0.26283571  0.88349251    -0.53100
O287        O  0.83945451  0.51120783  0.95816548    -0.54300
C288        C  0.94835885  0.49778938  0.97198852     0.78300
O289        O  0.88481183  0.42366609  0.93816512    -0.55500
C290        C  0.81541762  0.49865968  0.94807692     0.78300
C291        C  0.95661511  0.56723573  0.93305917     0.80700
Cd292      Cd  0.89658464  0.49317372  0.94959061     1.37500
O293        O  0.91750715  0.50795526  0.97268883    -0.54300
O294        O  0.94504446  0.57368860  0.94404998    -0.53100
C295        C  0.85355097  0.39700664  0.94574498     0.80600
O296        O  0.94177688  0.52649580  0.92968471    -0.55500
O297        O  0.95658258  0.48771319  0.96100988    -0.53900
O298        O  0.82961928  0.48549377  0.93874757    -0.53900
O299        O  0.84284713  0.41470637  0.95473257    -0.53100
O300        O  0.98610330  0.80323051  0.86997429    -0.54300
C301        C  0.10716084  0.81359664  0.85543326     0.78300
O302        O  0.12027190  0.88999537  0.88927861    -0.55500
C303        C  0.97594082  0.81679363  0.88012124     0.78300
C304        C  0.04707084  0.74659409  0.89458928     0.80700
Cd305      Cd  0.06173818  0.82040331  0.87799809     1.37500
O306        O  0.06606191  0.80357214  0.85494551    -0.54300
O307        O  0.02776722  0.74002516  0.88381139    -0.53100
C308        C  0.11701288  0.91662554  0.88145460     0.80600
O309        O  0.07449412  0.78732386  0.89772446    -0.55500
O310        O  0.12629500  0.82463722  0.86627801    -0.53900
O311        O  0.00422760  0.83021335  0.88921304    -0.53900
O312        O  0.08916213  0.89887684  0.87233669    -0.53100
O313        O  0.27373685  0.83727388  0.80496259    -0.54300
C314        C  0.36840084  0.82944187  0.78061631     0.78300
O315        O  0.22407323  0.75291211  0.77042649    -0.55500
C316        C  0.23259176  0.82687188  0.80413489     0.78300
C317        C  0.29555541  0.89727252  0.76559019     0.80700
Cd318      Cd  0.28109451  0.82288212  0.78192624     1.37500
O319        O  0.35631106  0.84161464  0.79067541    -0.54300
O320        O  0.31316454  0.90342989  0.77661256    -0.53100
C321        C  0.22816446  0.72658711  0.77817546     0.80600
O322        O  0.26996545  0.85658999  0.76204489    -0.55500
O323        O  0.34135196  0.81620312  0.77121830    -0.53900
O324        O  0.21473422  0.81672255  0.79311202    -0.53900
O325        O  0.25589848  0.74466198  0.78730048    -0.53100
O326        O  0.42651789  0.14234713  0.68953354    -0.54300
C327        C  0.52767882  0.15014265  0.71430023     0.78300
O328        O  0.45812562  0.22550940  0.72405751    -0.55500
C329        C  0.39517178  0.15180450  0.69031284     0.78300
C330        C  0.38612083  0.08058828  0.72865630     0.80700
Cd331      Cd  0.44679058  0.15609103  0.71264206     1.37500
O332        O  0.50423973  0.13845729  0.70409739    -0.54300
O333        O  0.39720046  0.07522213  0.71747675    -0.53100
C334        C  0.48958779  0.25224923  0.71653593     0.80600
O335        O  0.40173799  0.12101021  0.73248816    -0.55500
O336        O  0.51308332  0.16281368  0.72365108    -0.53900
O337        O  0.38653981  0.16119754  0.70133458    -0.53900
O338        O  0.50048139  0.23463337  0.70756942    -0.53100
O339        O  0.58710326  0.72212803  0.80556066    -0.54300
C340        C  0.48514552  0.62864259  0.78073763     0.78300
O341        O  0.55403515  0.77340310  0.77122763    -0.55500
C342        C  0.61819506  0.76331459  0.80491133     0.78300
C343        C  0.62693328  0.70145407  0.76632553     0.80700
Cd344      Cd  0.56633097  0.71594742  0.78250172     1.37500
O345        O  0.50855866  0.64051009  0.79094563    -0.54300
O346        O  0.61467343  0.68375663  0.77732327    -0.53100
C347        C  0.52306234  0.76869317  0.77892944     0.80600
O348        O  0.61253021  0.72736021  0.76273923    -0.55500
O349        O  0.49991496  0.65599717  0.77141487    -0.53900
O350        O  0.62648909  0.78179020  0.79396908    -0.53900
O351        O  0.51283774  0.74047690  0.78793007    -0.53100
O352        O  0.74001179  0.56985758  0.69016575    -0.54300
C353        C  0.64584989  0.46781281  0.71485335     0.78300
O354        O  0.78998374  0.53594546  0.72466947    -0.55500
C355        C  0.78106837  0.60122883  0.69092123     0.78300
C356        C  0.71849103  0.60926975  0.72947375     0.80700
Cd357      Cd  0.73323088  0.54897960  0.71323596     1.37500
O358        O  0.65766002  0.49175291  0.70474651    -0.54300
O359        O  0.70004023  0.59630796  0.71858711    -0.53100
C360        C  0.78613052  0.50583912  0.71676538     0.80600
O361        O  0.74517103  0.59564213  0.73292605    -0.55500
O362        O  0.67337481  0.48196061  0.72414288    -0.53900
O363        O  0.79911785  0.60968393  0.70192343    -0.53900
O364        O  0.75868038  0.49640582  0.70759414    -0.53100
O365        O  0.15795172  0.40947612  0.80519569    -0.54300
C366        C  0.16702341  0.51097119  0.78032136     0.78300
O367        O  0.24266428  0.44261846  0.77067347    -0.55500
C368        C  0.16775917  0.37837088  0.80451848     0.78300
C369        C  0.09794318  0.36932428  0.76583625     0.80700
Cd370      Cd  0.17274653  0.43000914  0.78208994     1.37500
O371        O  0.15448107  0.48718559  0.79045631    -0.54300
O372        O  0.09207421  0.38156429  0.77679544    -0.53100
C373        C  0.26912433  0.47312677  0.77847038     0.80600
O374        O  0.13854232  0.38381173  0.76233258    -0.55500
O375        O  0.18046474  0.49670245  0.77107254    -0.53900
O376        O  0.17771227  0.36991883  0.79355011    -0.53900
O377        O  0.25114699  0.48292802  0.78759128    -0.53100
O378        O  0.85332325  0.25609495  0.68975770    -0.54300
C379        C  0.84637769  0.35099948  0.71447350     0.78300
O380        O  0.76955281  0.20672564  0.72437461    -0.55500
C381        C  0.84311020  0.21501759  0.69059462     0.78300
C382        C  0.91447538  0.27796686  0.72895168     0.80700
Cd383      Cd  0.83957480  0.26362719  0.71285033     1.37500
O384        O  0.85847904  0.33920831  0.70434090    -0.54300
O385        O  0.92028217  0.29519919  0.71788585    -0.53100
C386        C  0.74325016  0.21077785  0.71659973     0.80600
O387        O  0.87387823  0.25271679  0.73264382    -0.55500
O388        O  0.83303354  0.32359927  0.72378634    -0.53900
O389        O  0.83328061  0.19726983  0.70163598    -0.53900
O390        O  0.76137135  0.23842472  0.70745792    -0.53100
O391        O  0.09429940  0.59775559  0.52169416    -0.54300
C392        C  0.19810656  0.68881049  0.54654718     0.78300
O393        O  0.06946884  0.59038936  0.56446832    -0.55500
C394        C  0.06327386  0.55652097  0.52221805     0.78300
C395        C  0.15691932  0.54859893  0.54858083     0.80700
Cd396      Cd  0.11550009  0.60279441  0.54473558     1.37500
O397        O  0.17470632  0.67764512  0.53634111    -0.54300
O398        O  0.16769513  0.57654264  0.53948076    -0.53100
C399        C  0.05631285  0.61768771  0.56132913     0.80600
O400        O  0.12614853  0.54477205  0.55621438    -0.55500
O401        O  0.18262899  0.66147614  0.55585939    -0.53900
O402        O  0.05521759  0.53753408  0.53307921    -0.53900
O403        O  0.06913645  0.63678052  0.55051359    -0.53100
O404        O  0.94724648  0.74460068  0.64007346    -0.54300
C405        C  0.03846832  0.84798454  0.61513636     0.78300
O406        O  0.93997455  0.71944096  0.59732107    -0.55500
C407        C  0.90605988  0.71343131  0.63952922     0.78300
C408        C  0.89817644  0.80702547  0.61309168     0.80700
Cd409      Cd  0.95233107  0.76557527  0.61701733     1.37500
O410        O  0.02721686  0.82483597  0.62538924    -0.54300
O411        O  0.92604991  0.81780663  0.62221360    -0.53100
C412        C  0.96726073  0.70629465  0.60049306     0.80600
O413        O  0.89436465  0.77620592  0.60548899    -0.55500
O414        O  0.01114292  0.83236102  0.60582428    -0.53900
O415        O  0.88713548  0.70524881  0.62865681    -0.53900
O416        O  0.98629300  0.71914030  0.61131570    -0.53100
O417        O  0.52756396  0.90302793  0.52112921    -0.54300
C418        C  0.51600734  0.79963503  0.54556435     0.78300
O419        O  0.54441399  0.92608233  0.56419981    -0.55500
C420        C  0.51727626  0.93378080  0.52181329     0.78300
C421        C  0.41573075  0.83974586  0.54808446     0.80700
Cd422      Cd  0.51176643  0.88153506  0.54416866     1.37500
O423        O  0.52934613  0.82401859  0.53554907    -0.54300
O424        O  0.43292215  0.82918786  0.53892091    -0.53100
C425        C  0.58529563  0.94093548  0.56096981     0.80600
O426        O  0.44283499  0.87036876  0.55573876    -0.55500
O427        O  0.50260213  0.81377343  0.55484703    -0.53900
O428        O  0.50666841  0.94166981  0.53275867    -0.53900
O429        O  0.59219584  0.92965298  0.54999175    -0.53100
O430        O  0.81946432  0.04821555  0.63981145    -0.54300
C431        C  0.83262736  0.95788221  0.61479109     0.78300
O432        O  0.80394040  0.05679437  0.59694396    -0.55500
C433        C  0.82981247  0.08938940  0.63932669     0.78300
C434        C  0.93280553  0.09898727  0.61347140     0.80700
Cd435      Cd  0.83645079  0.04379770  0.61676392     1.37500
O436        O  0.81895891  0.96822556  0.62488314    -0.54300
O437        O  0.91481893  0.07090291  0.62252328    -0.53100
C438        C  0.76305729  0.02979793  0.60004862     0.80600
O439        O  0.90636118  0.10238023  0.60560320    -0.55500
O440        O  0.84611649  0.98598207  0.60565175    -0.53900
O441        O  0.84105072  0.10851568  0.62848414    -0.53900
O442        O  0.75613124  0.01056922  0.61084967    -0.53100
O443        O  0.31785371  0.46905118  0.53644225    -0.54300
C444        C  0.43921251  0.47979062  0.52203006     0.78300
O445        O  0.45186134  0.55610558  0.55583112    -0.55500
C446        C  0.30761701  0.48286102  0.54652526     0.78300
C447        C  0.37935801  0.41285960  0.56118416     0.80700
Cd448      Cd  0.39346702  0.48644889  0.54455364     1.37500
O449        O  0.39804689  0.46953084  0.52151142    -0.54300
O450        O  0.35991945  0.40610633  0.55042172    -0.53100
C451        C  0.44888346  0.58267394  0.54792019     0.80600
O452        O  0.40653657  0.45366608  0.56430177    -0.55500
O453        O  0.45827277  0.49104342  0.53288055    -0.53900
O454        O  0.33580781  0.49643031  0.55564394    -0.53900
O455        O  0.42110273  0.56486058  0.53879019    -0.53100
O456        O  0.17477918  0.17957330  0.62557996    -0.54300
C457        C  0.28424330  0.16667158  0.63921744     0.78300
O458        O  0.22014475  0.09219490  0.60534872    -0.55500
C459        C  0.14983167  0.16555283  0.61568138     0.78300
C460        C  0.29098879  0.23467617  0.60007060     0.80700
Cd461      Cd  0.23177056  0.16125304  0.61692794     1.37500
O462        O  0.25333101  0.17673751  0.63995788    -0.54300
O463        O  0.27993036  0.24159367  0.61107827    -0.53100
C464        C  0.18990159  0.06523672  0.61312089     0.80600
O465        O  0.27599480  0.19380279  0.59682733    -0.55500
O466        O  0.29221655  0.15635380  0.62824128    -0.53900
O467        O  0.16341352  0.15141303  0.60644146    -0.53900
O468        O  0.17976915  0.08257177  0.62233964    -0.53100
C469        C  0.31811951  0.27184248  0.59153605    -0.15000
C470        C  0.33783667  0.30434528  0.58456148     0.09100
C471        C  0.35700780  0.34300864  0.57650369     0.10900
C472        C  0.36956174  0.37558629  0.56959552    -0.15900
C473        C  0.10688524  0.16369203  0.61498719    -0.15000
C474        C  0.06862667  0.15650732  0.61390475     0.09100
C475        C  0.02205202  0.14214534  0.61268289     0.10900
C476        C  0.98133545  0.12502387  0.61233782    -0.15900
C477        C  0.51404953  0.75668060  0.54634355    -0.15000
C478        C  0.50677622  0.71843030  0.54748435     0.09100
C479        C  0.49228855  0.67186523  0.54874461     0.10900
C480        C  0.47504542  0.63115925  0.54908969    -0.15900
C481        C  0.62247284  0.96816329  0.56949318    -0.15000
C482        C  0.65490051  0.98797135  0.57649289     0.09100
C483        C  0.69343025  0.00726720  0.58460886     0.10900
C484        C  0.72589365  0.01992547  0.59157566    -0.15900
C485        C  0.16699407  0.01684890  0.61169456    -0.15000
C486        C  0.14305605  0.97615102  0.61184110     0.09100
C487        C  0.11056753  0.92954790  0.61296931     0.10900
C488        C  0.07944134  0.89120685  0.61413736    -0.15900
C489        C  0.87282558  0.82984768  0.61158887    -0.15000
C490        C  0.85617709  0.85372550  0.61165995     0.09100
C491        C  0.84209198  0.88608364  0.61269696     0.10900
C492        C  0.83485527  0.91706042  0.61380530    -0.15900
C493        C  0.24145162  0.72968049  0.54748269    -0.15000
C494        C  0.27990265  0.76070603  0.54855389     0.09100
C495        C  0.32660877  0.79307127  0.54954471     0.10900
C496        C  0.36734328  0.81691140  0.54958582    -0.15900
C497        C  0.26679320  0.48511043  0.54753379    -0.15000
C498        C  0.23582682  0.49235121  0.54870867     0.09100
C499        C  0.20350566  0.50646086  0.54985498     0.10900
C500        C  0.17967508  0.52316322  0.55001522    -0.15900
C501        C  0.97764690  0.67927289  0.59205066    -0.15000
C502        C  0.99045759  0.65974064  0.58502913     0.09100
C503        C  0.00965494  0.64068435  0.57682412     0.10900
C504        C  0.02927049  0.62798798  0.56979415    -0.15900
C505        C  0.84152405  0.18899344  0.67949338    -0.15000
C506        C  0.83800909  0.16538035  0.67039243     0.09100
C507        C  0.83319351  0.13720033  0.65978572     0.10900
C508        C  0.83017732  0.11411114  0.65060075    -0.15900
C509        C  0.05984355  0.34144058  0.75765587    -0.15000
C510        C  0.02626758  0.32111646  0.75109335     0.09100
C511        C  0.98627233  0.30125823  0.74355518     0.10900
C512        C  0.95266774  0.28817870  0.73703869    -0.15900
C513        C  0.84569815  0.39268993  0.71534054    -0.15000
C514        C  0.83967538  0.42446108  0.71647241     0.09100
C515        C  0.82677882  0.45770804  0.71767899     0.10900
C516        C  0.81088624  0.48226163  0.71798575    -0.15900
C517        C  0.88115405  0.68899300  0.65077240    -0.15000
C518        C  0.85811160  0.66889657  0.65996599     0.09100
C519        C  0.83013012  0.64559204  0.67061504     0.10900
C520        C  0.80675670  0.62558919  0.67976715    -0.15900
C521        C  0.31764973  0.49675215  0.77718243    -0.15000
C522        C  0.35828113  0.52146253  0.77744610     0.09100
C523        C  0.40460471  0.55494400  0.77864138     0.10900
C524        C  0.44254388  0.58687959  0.77979788    -0.15900
C525        C  0.70811362  0.63707999  0.73762097    -0.15000
C526        C  0.69491590  0.65748940  0.74415245     0.09100
C527        C  0.67501677  0.67762426  0.75167473     0.10900
C528        C  0.65473697  0.69099676  0.75819782    -0.15900
C529        C  0.51308398  0.30069271  0.71796146    -0.15000
C530        C  0.53792361  0.34129186  0.71782275     0.09100
C531        C  0.57171133  0.38753596  0.71676920     0.10900
C532        C  0.60390569  0.42535772  0.71571323    -0.15900
C533        C  0.57012084  0.15103624  0.71521400    -0.15000
C534        C  0.60794864  0.15711259  0.71639226     0.09100
C535        C  0.65416269  0.17003101  0.71763212     0.10900
C536        C  0.69474073  0.18596497  0.71791651    -0.15900
C537        C  0.37104742  0.15315819  0.67916665    -0.15000
C538        C  0.35127439  0.15676937  0.67005204     0.09100
C539        C  0.32833023  0.16201507  0.65947767     0.10900
C540        C  0.30852940  0.16557278  0.65036068    -0.15900
C541        C  0.20329522  0.67811057  0.77684095    -0.15000
C542        C  0.18725801  0.63753612  0.77707393     0.09100
C543        C  0.17419159  0.59128934  0.77824380     0.10900
C544        C  0.16800696  0.55343052  0.77938768    -0.15900
C545        C  0.41001709  0.82854746  0.77992842    -0.15000
C546        C  0.44172176  0.82234344  0.77894774     0.09100
C547        C  0.47490572  0.80930695  0.77789056     0.10900
C548        C  0.49944801  0.79339366  0.77767109    -0.15900
C549        C  0.35832684  0.04212756  0.73672143    -0.15000
C550        C  0.33814905  0.00845479  0.74324624     0.09100
C551        C  0.31852811  0.96855767  0.75081193     0.10900
C552        C  0.30564411  0.93515813  0.75739669    -0.15900
C553        C  0.13180993  0.81386342  0.84415693    -0.15000
C554        C  0.15486083  0.81688195  0.83496281     0.09100
C555        C  0.18301253  0.82178407  0.82434356     0.10900
C556        C  0.20660420  0.82535481  0.81523263    -0.15900
C557        C  0.98414601  0.60478127  0.92468404    -0.15000
C558        C  0.00421471  0.63756531  0.91782824     0.09100
C559        C  0.02385267  0.67647388  0.90986714     0.10900
C560        C  0.03683429  0.70920200  0.90299729    -0.15900
C561        C  0.14284882  0.96510189  0.88272710    -0.15000
C562        C  0.15964636  0.00577430  0.88249245     0.09100
C563        C  0.17355630  0.05224315  0.88133980     0.10900
C564        C  0.18040170  0.09035857  0.88023237    -0.15900
C565        C  0.16891557  0.35432350  0.81571550    -0.15000
C566        C  0.17243153  0.33450360  0.82483737     0.09100
C567        C  0.17756169  0.31135568  0.83538518     0.10900
C568        C  0.18101250  0.29134397  0.84446897    -0.15900
C569        C  0.64725964  0.45924921  0.94518675    -0.15000
C570        C  0.68797425  0.47626869  0.94530018     0.09100
C571        C  0.73453397  0.49035639  0.94629235     0.10900
C572        C  0.77269496  0.49721761  0.94729337    -0.15900
C573        C  0.28845747  0.30166636  0.90290678    -0.15000
C574        C  0.32100052  0.32141489  0.90986324     0.09100
C575        C  0.35954570  0.34059606  0.91796261     0.10900
C576        C  0.39198198  0.35322209  0.92493196    -0.15900
C577        C  0.90689317  0.06189167  0.88131804    -0.15000
C578        C  0.94526461  0.09306414  0.88237366     0.09100
C579        C  0.99192529  0.12548800  0.88341520     0.10900
C580        C  0.03264920  0.14935814  0.88349984    -0.15900
C581        C  0.84729227  0.85600664  0.88407114    -0.15000
C582        C  0.87143104  0.83965669  0.88381662     0.09100
C583        C  0.90398363  0.82589830  0.88253416     0.10900
C584        C  0.93506172  0.81888681  0.88124170    -0.15900
C585        C  0.64242323  0.78865295  0.81612143    -0.15000
C586        C  0.66223828  0.81170127  0.82533860     0.09100
C587        C  0.68522580  0.83937914  0.83606177     0.10900
C588        C  0.70505795  0.86233523  0.84529137    -0.15900
C589        C  0.74246431  0.22303745  0.94733687    -0.15000
C590        C  0.77359470  0.26134083  0.94605489     0.09100
C591        C  0.80616319  0.30787211  0.94471988     0.10900
C592        C  0.83029175  0.34855119  0.94440860    -0.15900
C593        C  0.50080631  0.25077747  0.94698552    -0.15000
C594        C  0.50734595  0.21937089  0.94581619     0.09100
C595        C  0.52049334  0.18632374  0.94472912     0.10900
C596        C  0.53650908  0.16189745  0.94464888    -0.15900
C597        C  0.69484113  0.95914013  0.90392281    -0.15000
C598        C  0.67477739  0.97192506  0.91074361     0.09100
C599        C  0.65495904  0.99119005  0.91863376     0.10900
C600        C  0.64168131  0.01087475  0.92543138    -0.15900
C601        C  0.70226178  0.04227722  0.23708226    -0.15000
C602        C  0.68968616  0.00982306  0.24403855     0.09100
C603        C  0.67047929  0.97121694  0.25211311     0.10900
C604        C  0.65067909  0.93861771  0.25904596    -0.15900
C605        C  0.31358961  0.79134465  0.27902635    -0.15000
C606        C  0.35430206  0.80840156  0.27930864     0.09100
C607        C  0.40085694  0.82266876  0.28050674     0.10900
C608        C  0.43907463  0.82978960  0.28164180    -0.15900
C609        C  0.80694595  0.29745574  0.21679657    -0.15000
C610        C  0.82393428  0.33814957  0.21663576     0.09100
C611        C  0.83812250  0.38470445  0.21559154     0.10900
C612        C  0.84512631  0.42289342  0.21456389    -0.15900
C613        C  0.95311095  0.63465929  0.23712988    -0.15000
C614        C  0.98595940  0.65463590  0.24397165     0.09100
C615        C  0.02495760  0.67401344  0.25190301     0.10900
C616        C  0.05773487  0.68664190  0.25873733    -0.15900
C617        C  0.41154592  0.55686393  0.28053156    -0.15000
C618        C  0.44263668  0.59530038  0.27953826     0.09100
C619        C  0.47495787  0.64200992  0.27858118     0.10900
C620        C  0.49873893  0.68273209  0.27853902    -0.15900
C621        C  0.16703454  0.58334674  0.28021535    -0.15000
C622        C  0.17421094  0.55238483  0.27894303     0.09100
C623        C  0.18830811  0.52008993  0.27771779     0.10900
C624        C  0.20498847  0.49624669  0.27752568    -0.15900
C625        C  0.51000707  0.18596443  0.21702252    -0.15000
C626        C  0.53428494  0.16977205  0.21700501     0.09100
C627        C  0.56726012  0.15648570  0.21600470     0.10900
C628        C  0.59870065  0.14994698  0.21490256    -0.15900
C629        C  0.57136507  0.39272979  0.21455038    -0.15000
C630        C  0.60959809  0.42397756  0.21586289     0.09100
C631        C  0.65610141  0.45669123  0.21719306     0.10900
C632        C  0.69678909  0.48090157  0.21748070    -0.15900
C633        C  0.35900114  0.29073907  0.23620012    -0.15000
C634        C  0.33947464  0.30394098  0.24309219     0.09100
C635        C  0.32058705  0.32381898  0.25110654     0.10900
C636        C  0.30817165  0.34403306  0.25799491    -0.15900
C637        C  0.83189063  0.68434397  0.14968611    -0.15000
C638        C  0.83563998  0.66467309  0.15880896     0.09100
C639        C  0.84100812  0.64189007  0.16941208     0.10900
C640        C  0.84469418  0.62230967  0.17856839    -0.15900
C641        C  0.72044038  0.67105307  0.09207701    -0.15000
C642        C  0.68675348  0.65070929  0.08555675     0.09100
C643        C  0.64680254  0.63086053  0.07799681     0.10900
C644        C  0.61340173  0.61781156  0.07139095    -0.15900
C645        C  0.50605697  0.52042293  0.01316405    -0.15000
C646        C  0.50290003  0.49723329  0.00399625     0.09100
C647        C  0.49835155  0.46948990  0.99331158     0.10900
C648        C  0.49555661  0.44674838  0.98406756    -0.15900
C649        C  0.10397047  0.91764275  0.11340837    -0.15000
C650        C  0.06594138  0.88576031  0.11238867     0.09100
C651        C  0.01956829  0.85234000  0.11128589     0.10900
C652        C  0.97894000  0.82759495  0.11107528    -0.15900
C653        C  0.37049071  0.19486321  0.17742130    -0.15000
C654        C  0.35059762  0.17204770  0.16817461     0.09100
C655        C  0.32724292  0.14430786  0.15749289     0.10900
C656        C  0.30689148  0.12101532  0.14836485    -0.15900
C657        C  0.50694080  0.72196531  0.04877217    -0.15000
C658        C  0.50088710  0.75374604  0.04977959     0.09100
C659        C  0.48807237  0.78708414  0.05083829     0.10900
C660        C  0.47232352  0.81176516  0.05102926    -0.15900
C661        C  0.36853365  0.96583273  0.07043574    -0.15000
C662        C  0.35512112  0.98619861  0.07690179     0.09100
C663        C  0.33512683  0.00643271  0.08433815     0.10900
C664        C  0.31494774  0.02002936  0.09081754    -0.15900
C665        C  0.54336361  0.02047592  0.98385250    -0.15000
C666        C  0.52029883  0.00034999  0.99304403     0.09100
C667        C  0.49241661  0.97686090  0.00369802     0.10900
C668        C  0.46910192  0.95653330  0.01283061    -0.15900
C669        C  0.79583652  0.14633248  0.17798078    -0.15000
C670        C  0.81872114  0.14918199  0.16876160     0.09100
C671        C  0.84658650  0.15372664  0.15810099     0.10900
C672        C  0.86980085  0.15688331  0.14893397    -0.15900
C673        C  0.86390794  0.00771918  0.11084141    -0.15000
C674        C  0.84788742  0.96715003  0.11117680     0.09100
C675        C  0.83490504  0.92093835  0.11242477     0.10900
C676        C  0.82882276  0.88312287  0.11360092    -0.15900
C677        C  0.16119473  0.12415986  0.11046176    -0.15000
C678        C  0.13651547  0.13992334  0.11067735     0.09100
C679        C  0.10316303  0.15273814  0.11176540     0.10900
C680        C  0.07133563  0.15872814  0.11282189    -0.15900
C681        C  0.97229749  0.49631148  0.98317542    -0.15000
C682        C  0.99177034  0.49240664  0.99232610     0.09100
C683        C  0.01427850  0.48668567  0.00294253     0.10900
C684        C  0.03365888  0.48262464  0.01209096    -0.15900
C685        C  0.23180559  0.47920217  0.04853239    -0.15000
C686        C  0.26966078  0.48536193  0.04973701     0.09100
C687        C  0.31592940  0.49846563  0.05098409     0.10900
C688        C  0.35653818  0.51459880  0.05129415    -0.15900
C689        C  0.17630228  0.62914247  0.05078564    -0.15000
C690        C  0.20101298  0.66975386  0.05050671     0.09100
C691        C  0.23432714  0.71611133  0.04929524     0.10900
C692        C  0.26609337  0.75416035  0.04818348    -0.15900
C693        C  0.96565489  0.26404081  0.09052943    -0.15000
C694        C  0.97864094  0.29734089  0.08389044     0.09100
C695        C  0.99856572  0.33718198  0.07629120     0.10900
C696        C  0.01905080  0.37078733  0.06975197    -0.15900
C697        C  0.50345660  0.02029673  0.48184903    -0.15000
C698        C  0.50722274  0.00057367  0.49095010     0.09100
C699        C  0.51262394  0.97771420  0.50151869     0.10900
C700        C  0.51623089  0.95797818  0.51064311    -0.15900
C701        C  0.17427080  0.85511834  0.34630902    -0.15000
C702        C  0.17060999  0.83131475  0.33725148     0.09100
C703        C  0.16563896  0.80296224  0.32668878     0.10900
C704        C  0.16257215  0.77983007  0.31751760    -0.15900
C705        C  0.39256883  0.00792733  0.42432692    -0.15000
C706        C  0.35880929  0.98767685  0.41783672     0.09100
C707        C  0.31872546  0.96793948  0.41034583     0.10900
C708        C  0.28514258  0.95496414  0.40383165    -0.15900
C709        C  0.17859336  0.05938445  0.38145429    -0.15000
C710        C  0.17242917  0.09109602  0.38244309     0.09100
C711        C  0.15934409  0.12422164  0.38352593     0.10900
C712        C  0.14334576  0.14867988  0.38378608    -0.15900
C713        C  0.13800140  0.29232925  0.34572007    -0.15000
C714        C  0.16113030  0.31246319  0.33654411     0.09100
C715        C  0.18897406  0.33571359  0.32586893     0.10900
C716        C  0.21205281  0.35559676  0.31666024    -0.15900
C717        C  0.04115107  0.30366904  0.40368408    -0.15000
C718        C  0.02794366  0.32412326  0.41018796     0.09100
C719        C  0.00795020  0.34427974  0.41765486     0.10900
C720        C  0.98762619  0.35770211  0.42413604    -0.15900
C721        C  0.65118961  0.16349843  0.44340762    -0.15000
C722        C  0.69179548  0.18837905  0.44365759     0.09100
C723        C  0.73804112  0.22210556  0.44483008     0.10900
C724        C  0.77588935  0.25422525  0.44594956    -0.15900
C725        C  0.97601965  0.45753555  0.48186273    -0.15000
C726        C  0.99585416  0.48086399  0.49103989     0.09100
C727        C  0.01893966  0.50870643  0.50173533     0.10900
C728        C  0.03889005  0.53164491  0.51096072    -0.15900
C729        C  0.83237285  0.46034848  0.44342091    -0.15000
C730        C  0.80761905  0.47601339  0.44371655     0.09100
C731        C  0.77417617  0.48865114  0.44493984     0.10900
C732        C  0.74229034  0.49450561  0.44608464    -0.15900
C733        C  0.53491417  0.34351540  0.44333272    -0.15000
C734        C  0.51897205  0.30296021  0.44356637     0.09100
C735        C  0.50622481  0.25681197  0.44475763     0.10900
C736        C  0.50041281  0.21910126  0.44591025    -0.15900
C737        C  0.53881296  0.49045026  0.48196176    -0.15000
C738        C  0.51527032  0.48721136  0.49105533     0.09100
C739        C  0.48710490  0.48274373  0.50163402     0.10900
C740        C  0.46398736  0.47997919  0.51078808    -0.15900
C741        C  0.02760448  0.85274800  0.38460262    -0.15000
C742        C  0.98700407  0.83666759  0.38438246     0.09100
C743        C  0.94070000  0.82349282  0.38324509     0.10900
C744        C  0.90276979  0.81719715  0.38214384    -0.15900
C745        C  0.93647513  0.09139476  0.38200009    -0.15000
C746        C  0.90452693  0.05347763  0.38317669     0.09100
C747        C  0.87099412  0.00719191  0.38438993     0.10900
C748        C  0.84621192  0.96658766  0.38465419    -0.15900
C749        C  0.63715762  0.60110006  0.42437455    -0.15000
C750        C  0.65015058  0.63473848  0.41788725     0.09100
C751        C  0.67000252  0.67483063  0.41039985     0.10900
C752        C  0.69038919  0.70851540  0.40388826    -0.15900
C753        C  0.70376605  0.81906482  0.34608365    -0.15000
C754        C  0.68398357  0.82284093  0.33699617     0.09100
C755        C  0.66079297  0.82812985  0.32649091     0.10900
C756        C  0.64067924  0.83156788  0.31743351    -0.15900
loop_ 
_geom_bond_atom_site_label_1 
_geom_bond_atom_site_label_2 
_geom_bond_distance 
_geom_bond_site_symmetry_2 
_ccdc_geom_bond_type 
O1            C4   1.267       .  A
O1           Cd6   2.484       .  S
C2           O11   1.263       .  A
C2            O7   1.268       .  A
C2          C744   1.438       .  S
O3            C9   1.269       .  A
O3           Cd6   2.500       .  S
C4           O12   1.264       .  A
C4          C753   1.439       .  S
C5           O10   1.268       .  A
C5            O8   1.264       .  A
C5          C752   1.441       .  S
Cd6          O13   2.425       .  S
Cd6          O12   2.455       .  S
Cd6          O11   2.446       .  S
Cd6           O7   2.486       .  S
Cd6          O10   2.494       .  S
Cd6           O8   2.457       .  S
C9           O13   1.262       .  A
C9          C748   1.437       .  S
O14          C17   1.267       .  A
O14         Cd19   2.485       .  S
C15          O24   1.263       .  A
C15          O20   1.268       .  A
C15         C732   1.439       .  S
O16          C22   1.269       .  A
O16         Cd19   2.498       .  S
C17          O25   1.264       .  A
C17         C737   1.440       .  S
C18          O23   1.267       .  A
C18          O21   1.264       .  A
C18         C749   1.441       .  S
Cd19         O26   2.424       .  S
Cd19         O25   2.458       .  S
Cd19         O24   2.449       .  S
Cd19         O20   2.490       .  S
Cd19         O23   2.493       .  S
Cd19         O21   2.458       .  S
C22          O26   1.262       .  A
C22         C733   1.437       .  S
O27          C30   1.267       .  A
O27         Cd32   2.484       .  S
C28          O37   1.264       .  A
C28          O33   1.268       .  A
C28         C724   1.438       .  S
O29          C35   1.270       .  A
O29         Cd32   2.502       .  S
C30          O38   1.264       .  A
C30         C725   1.440       .  S
C31          O36   1.268       .  A
C31          O34   1.264       .  A
C31         C720   1.442       .  S
Cd32         O39   2.426       .  S
Cd32         O38   2.461       .  S
Cd32         O37   2.447       .  S
Cd32         O33   2.487       .  S
Cd32         O36   2.498       .  S
Cd32         O34   2.459       .  S
C35          O39   1.262       .  A
C35         C729   1.438       .  S
O40          C43   1.267       .  A
O40         Cd45   2.484       .  S
C41          O50   1.263   1_655  A
C41          O46   1.268       .  A
C41         C745   1.438       .  S
O42          C48   1.270       .  A
O42         Cd45   2.500       .  S
C43          O51   1.264       .  A
C43         C713   1.440       .  S
C44          O49   1.268       .  A
C44          O47   1.264       .  A
C44         C717   1.442       .  S
Cd45         O52   2.429       .  S
Cd45         O51   2.458       .  S
Cd45         O50   2.447       .  S
Cd45         O46   2.487   1_455  S
Cd45         O49   2.497       .  S
Cd45         O47   2.458       .  S
C48          O52   1.262       .  A
C48         C712   1.438       .  S
O53          C56   1.267       .  A
O53         Cd58   2.483       .  S
C54          O63   1.263   1_545  A
C54          O59   1.268       .  A
C54         C709   1.439       .  S
O55          C61   1.269       .  A
O55         Cd58   2.498       .  S
C56          O64   1.264       .  A
C56         C701   1.439       .  S
C57          O62   1.267       .  A
C57          O60   1.264       .  A
C57         C708   1.441       .  S
Cd58         O65   2.425       .  S
Cd58         O64   2.456       .  S
Cd58         O63   2.446       .  S
Cd58         O59   2.488   1_565  S
Cd58         O62   2.492       .  S
Cd58         O60   2.458       .  S
C61          O65   1.262       .  A
C61         C741   1.437       .  S
O66          C69   1.267       .  A
O66         Cd71   2.482       .  S
C67          O76   1.263       .  A
C67          O72   1.268       .  A
C67         C736   1.438       .  S
O68          C74   1.269       .  A
O68         Cd71   2.500       .  S
C69          O77   1.264       .  A
C69         C697   1.439       .  S
C70          O75   1.268       .  A
C70          O73   1.264       .  A
C70         C705   1.441       .  S
Cd71         O78   2.425       .  S
Cd71         O77   2.455       .  S
Cd71         O76   2.445       .  S
Cd71         O72   2.485       .  S
Cd71         O75   2.492       .  S
Cd71         O73   2.456       .  S
C74          O78   1.262       .  A
C74         C721   1.437       .  S
O79          C82   1.267       .  A
O79         Cd84   2.485       .  S
C80          O89   1.263       .  A
C80          O85   1.268       .  A
C80         C685   1.438       .  S
O81          C87   1.270       .  A
O81         Cd84   2.499       .  S
C82          O90   1.264       .  A
C82         C684   1.440       .  S
C83          O88   1.268       .  A
C83          O86   1.264       .  A
C83         C696   1.441       .  S
Cd84         O91   2.425       .  S
Cd84         O90   2.458       .  S
Cd84         O89   2.446       .  S
Cd84         O85   2.487       .  S
Cd84         O88   2.494       .  S
Cd84         O86   2.458       .  S
C87          O91   1.262       .  A
C87         C689   1.437       .  S
O92          C95   1.267       .  A
O92         Cd97   2.485       .  S
C93         O102   1.263       .  A
C93          O98   1.268       .  A
C93         C680   1.439       .  S
O94         C100   1.269       .  A
O94         Cd97   2.499       .  S
C95         O103   1.264       .  A
C95         C672   1.440       .  S
C96         O101   1.267       .  A
C96          O99   1.264       .  A
C96         C693   1.441       .  S
Cd97        O104   2.427       .  S
Cd97        O103   2.458       .  S
Cd97        O102   2.449   1_655  S
Cd97         O98   2.490   1_655  S
Cd97        O101   2.495       .  S
Cd97         O99   2.458       .  S
C100        O104   1.262       .  A
C100        C673   1.437       .  S
O105        C108   1.267       .  A
O105       Cd110   2.483       .  S
C106        O115   1.263       .  A
C106        O111   1.268       .  A
C106        C692   1.438       .  S
O107        C113   1.270       .  A
O107       Cd110   2.501       .  S
C108        O116   1.264       .  A
C108        C668   1.440       .  S
C109        O114   1.268       .  A
C109        O112   1.264       .  A
C109        C661   1.443       .  S
Cd110       O117   2.428       .  S
Cd110       O116   2.460       .  S
Cd110       O115   2.445       .  S
Cd110       O111   2.489       .  S
Cd110       O114   2.498       .  S
Cd110       O112   2.460       .  S
C113        O117   1.262       .  A
C113        C660   1.438       .  S
O118        C121   1.267       .  A
O118       Cd123   2.481       .  S
C119        O128   1.263       .  A
C119        O124   1.268       .  A
C119        C649   1.438       .  S
O120        C126   1.270       .  A
O120       Cd123   2.502       .  S
C121        O129   1.264       .  A
C121        C656   1.440       .  S
C122        O127   1.268       .  A
C122        O125   1.264       .  A
C122        C664   1.443       .  S
Cd123       O130   2.430       .  S
Cd123       O129   2.460       .  S
Cd123       O128   2.446   1_545  S
Cd123       O124   2.488   1_545  S
Cd123       O127   2.498       .  S
Cd123       O125   2.459       .  S
C126        O130   1.262       .  A
C126        C677   1.439       .  S
O131        C134   1.267       .  A
O131       Cd136   2.483       .  S
C132        O141   1.263       .  A
C132        O137   1.268       .  A
C132        C657   1.439       .  S
O133        C139   1.269       .  A
O133       Cd136   2.500       .  S
C134        O142   1.264       .  A
C134        C645   1.440       .  S
C135        O140   1.267       .  A
C135        O138   1.264       .  A
C135        C644   1.442       .  S
Cd136       O143   2.427       .  S
Cd136       O142   2.458       .  S
Cd136       O141   2.448       .  S
Cd136       O137   2.489       .  S
Cd136       O140   2.495       .  S
Cd136       O138   2.459       .  S
C139        O143   1.262       .  A
C139        C688   1.437       .  S
O144        C147   1.267       .  A
O144       Cd149   2.484       .  S
C145        O154   1.263       .  A
C145        O150   1.268       .  A
C145        C676   1.438       .  S
O146        C152   1.270       .  A
O146       Cd149   2.499       .  S
C147        O155   1.264       .  A
C147        C637   1.440       .  S
C148        O153   1.268       .  A
C148        O151   1.264       .  A
C148        C641   1.441       .  S
Cd149       O156   2.425       .  S
Cd149       O155   2.458       .  S
Cd149       O154   2.446       .  S
Cd149       O150   2.487       .  S
Cd149       O153   2.494       .  S
Cd149       O151   2.458       .  S
C152        O156   1.262       .  A
C152        C652   1.437       .  S
O157        C160   1.268       .  A
O157       Cd162   2.489       .  S
C158        O167   1.264       .  A
C158        O163   1.267       .  A
C158        C653   1.440       .  S
O159        C165   1.269       .  A
O159       Cd162   2.497       .  S
C160        O168   1.263       .  A
C160        C629   1.438       .  S
C161        O166   1.267       .  A
C161        O164   1.264       .  A
C161        C633   1.441       .  S
Cd162       O169   2.426       .  S
Cd162       O168   2.446       .  S
Cd162       O167   2.460       .  S
Cd162       O163   2.487       .  S
Cd162       O166   2.490       .  S
Cd162       O164   2.462       .  S
C165        O169   1.262       .  A
C165        C625   1.437       .  S
O170        C173   1.268       .  A
O170       Cd175   2.486       .  S
C171        O180   1.264       .  A
C171        O176   1.267       .  A
C171        C716   1.440       .  S
O172        C178   1.269       .  A
O172       Cd175   2.498       .  S
C173        O181   1.263       .  A
C173        C617   1.437       .  S
C174        O179   1.267       .  A
C174        O177   1.264       .  A
C174        C636   1.441       .  S
Cd175       O182   2.427       .  S
Cd175       O181   2.445       .  S
Cd175       O180   2.459       .  S
Cd175       O176   2.486       .  S
Cd175       O179   2.490       .  S
Cd175       O177   2.463       .  S
C178        O182   1.262       .  A
C178        C624   1.437       .  S
O183        C186   1.268       .  A
O183       Cd188   2.488       .  S
C184        O193   1.264       .  A
C184        O189   1.267       .  A
C184        C640   1.440       .  S
O185        C191   1.269       .  A
O185       Cd188   2.498       .  S
C186        O194   1.263       .  A
C186        C612   1.438       .  S
C187        O192   1.267       .  A
C187        O190   1.264       .  A
C187        C613   1.440       .  S
Cd188       O195   2.425       .  S
Cd188       O194   2.446       .  S
Cd188       O193   2.459       .  S
Cd188       O189   2.487       .  S
Cd188       O192   2.490       .  S
Cd188       O190   2.461       .  S
C191        O195   1.262       .  A
C191        C632   1.437       .  S
O196        C199   1.267       .  A
O196       Cd201   2.487       .  S
C197        O206   1.263       .  A
C197        O202   1.268       .  A
C197        C621   1.438       .  S
O198        C204   1.267       .  A
O198       Cd201   2.490       .  S
C199        O207   1.263       .  A
C199        C704   1.439       .  S
C200        O205   1.269       .  A
C200        O203   1.262       .  A
C200        C605   1.437       .  S
Cd201       O208   2.459       .  S
Cd201       O207   2.454       .  S
Cd201       O206   2.447       .  S
Cd201       O202   2.489       .  S
Cd201       O205   2.495       .  S
Cd201       O203   2.426       .  S
C204        O208   1.264       .  A
C204        C616   1.440       .  S
O209        C212   1.268       .  A
O209       Cd214   2.487       .  S
C210        O219   1.263       .  A
C210        O215   1.267       .  A
C210        C669   1.440       .  S
O211        C217   1.269       .  A
O211       Cd214   2.496       .  S
C212        O220   1.263       .  A
C212        C628   1.438       .  S
C213        O218   1.267       .  A
C213        O216   1.264       .  A
C213        C601   1.440       .  S
Cd214       O221   2.428       .  S
Cd214       O220   2.448       .  S
Cd214       O219   2.457       .  S
Cd214       O215   2.488       .  S
Cd214       O218   2.489       .  S
Cd214       O216   2.461       .  S
C217        O221   1.262       .  A
C217        C609   1.437       .  S
O222        C225   1.268       .  A
O222       Cd227   2.489       .  S
C223        O232   1.263       .  A
C223        O228   1.267       .  A
C223        C756   1.440       .  S
O224        C230   1.269       .  A
O224       Cd227   2.494       .  S
C225        O233   1.263       .  A
C225        C608   1.438       .  S
C226        O231   1.267       .  A
C226        O229   1.264       .  A
C226        C604   1.440       .  S
Cd227       O234   2.428       .  S
Cd227       O233   2.445       .  S
Cd227       O232   2.456       .  S
Cd227       O228   2.488       .  S
Cd227       O231   2.487       .  S
Cd227       O229   2.461       .  S
C230        O234   1.262       .  A
C230        C620   1.436       .  S
O235        C238   1.267       .  A
O235       Cd240   2.487       .  S
C236        O245   1.263       .  A
C236        O241   1.268       .  A
C236        C589   1.438       .  S
O237        C243   1.267       .  A
O237       Cd240   2.491       .  S
C238        O246   1.264       .  A
C238        C665   1.441       .  S
C239        O244   1.269       .  A
C239        O242   1.262       .  A
C239        C596   1.437       .  S
Cd240       O247   2.460       .  S
Cd240       O246   2.461       .  S
Cd240       O245   2.444       .  S
Cd240       O241   2.490       .  S
Cd240       O244   2.497       .  S
Cd240       O242   2.425       .  S
C243        O247   1.264       .  A
C243        C600   1.441       .  S
O248        C251   1.268       .  A
O248       Cd253   2.486   1_545  S
C249        O258   1.264       .  A
C249        O254   1.267       .  A
C249        C588   1.440       .  S
O250        C256   1.269       .  A
O250       Cd253   2.498       .  S
C251        O259   1.263   1_545  A
C251        C577   1.437       .  S
C252        O257   1.267       .  A
C252        O255   1.264       .  A
C252        C597   1.441       .  S
Cd253       O260   2.426       .  S
Cd253       O259   2.443       .  S
Cd253       O258   2.460       .  S
Cd253       O254   2.485       .  S
Cd253       O257   2.492       .  S
Cd253       O255   2.460       .  S
C256        O260   1.262       .  A
C256        C581   1.437       .  S
O261        C264   1.268       .  A
O261       Cd266   2.487       .  S
C262        O271   1.263       .  A
C262        O267   1.267       .  A
C262        C648   1.440       .  S
O263        C269   1.269       .  A
O263       Cd266   2.495       .  S
C264        O272   1.263       .  A
C264        C593   1.438       .  S
C265        O270   1.267       .  A
C265        O268   1.264       .  A
C265        C576   1.440       .  S
Cd266       O273   2.427       .  S
Cd266       O272   2.448       .  S
Cd266       O271   2.457       .  S
Cd266       O267   2.487       .  S
Cd266       O270   2.488       .  S
Cd266       O268   2.460       .  S
C269        O273   1.262       .  A
C269        C569   1.437       .  S
O274        C277   1.267       .  A
O274       Cd279   2.488       .  S
C275        O284   1.263       .  A
C275        O280   1.268       .  A
C275        C564   1.438       .  S
O276        C282   1.267       .  A
O276       Cd279   2.486       .  S
C277        O285   1.263       .  A
C277        C568   1.440       .  S
C278        O283   1.269       .  A
C278        O281   1.262       .  A
C278        C580   1.436       .  S
Cd279       O286   2.461       .  S
Cd279       O285   2.458       .  S
Cd279       O284   2.447       .  S
Cd279       O280   2.490       .  S
Cd279       O283   2.495       .  S
Cd279       O281   2.427       .  S
C282        O286   1.264       .  A
C282        C573   1.440       .  S
O287        C290   1.268       .  A
O287       Cd292   2.487       .  S
C288        O297   1.264       .  A
C288        O293   1.267       .  A
C288        C681   1.440       .  S
O289        C295   1.269       .  A
O289       Cd292   2.498       .  S
C290        O298   1.263       .  A
C290        C572   1.438       .  S
C291        O296   1.267       .  A
C291        O294   1.264       .  A
C291        C557   1.440       .  S
Cd292       O299   2.426       .  S
Cd292       O298   2.446       .  S
Cd292       O297   2.459       .  S
Cd292       O293   2.487       .  S
Cd292       O296   2.489       .  S
Cd292       O294   2.460       .  S
C295        O299   1.262       .  A
C295        C592   1.437       .  S
O300        C303   1.268       .  A
O300       Cd305   2.489   1_655  S
C301        O310   1.264       .  A
C301        O306   1.267       .  A
C301        C553   1.440       .  S
O302        C308   1.269       .  A
O302       Cd305   2.497       .  S
C303        O311   1.263   1_655  A
C303        C584   1.438       .  S
C304        O309   1.267       .  A
C304        O307   1.264       .  A
C304        C560   1.440       .  S
Cd305       O312   2.427       .  S
Cd305       O311   2.446       .  S
Cd305       O310   2.457       .  S
Cd305       O306   2.487       .  S
Cd305       O309   2.490       .  S
Cd305       O307   2.459       .  S
C308        O312   1.262       .  A
C308        C561   1.437       .  S
O313        C316   1.267       .  A
O313       Cd318   2.484       .  S
C314        O323   1.263       .  A
C314        O319   1.268       .  A
C314        C545   1.439       .  S
O315        C321   1.269       .  A
O315       Cd318   2.499       .  S
C316        O324   1.264       .  A
C316        C556   1.440       .  S
C317        O322   1.267       .  A
C317        O320   1.264       .  A
C317        C552   1.441       .  S
Cd318       O325   2.426       .  S
Cd318       O324   2.458       .  S
Cd318       O323   2.447       .  S
Cd318       O319   2.488       .  S
Cd318       O322   2.493       .  S
Cd318       O320   2.459       .  S
C321        O325   1.262       .  A
C321        C541   1.437       .  S
O326        C329   1.267       .  A
O326       Cd331   2.482       .  S
C327        O336   1.263       .  A
C327        O332   1.268       .  A
C327        C533   1.438       .  S
O328        C334   1.269       .  A
O328       Cd331   2.500       .  S
C329        O337   1.264       .  A
C329        C537   1.439       .  S
C330        O335   1.268       .  A
C330        O333   1.264       .  A
C330        C549   1.441       .  S
Cd331       O338   2.425       .  S
Cd331       O337   2.455       .  S
Cd331       O336   2.446       .  S
Cd331       O332   2.487       .  S
Cd331       O335   2.491       .  S
Cd331       O333   2.458       .  S
C334        O338   1.262       .  A
C334        C529   1.437       .  S
O339        C342   1.267       .  A
O339       Cd344   2.483       .  S
C340        O349   1.263       .  A
C340        O345   1.268       .  A
C340        C524   1.438       .  S
O341        C347   1.270       .  A
O341       Cd344   2.501       .  S
C342        O350   1.264       .  A
C342        C585   1.440       .  S
C343        O348   1.268       .  A
C343        O346   1.264       .  A
C343        C528   1.443       .  S
Cd344       O351   2.428       .  S
Cd344       O350   2.459       .  S
Cd344       O349   2.447       .  S
Cd344       O345   2.487       .  S
Cd344       O348   2.498       .  S
Cd344       O346   2.460       .  S
C347        O351   1.262       .  A
C347        C548   1.438       .  S
O352        C355   1.267       .  A
O352       Cd357   2.484       .  S
C353        O362   1.264       .  A
C353        O358   1.268       .  A
C353        C532   1.438       .  S
O354        C360   1.270       .  A
O354       Cd357   2.502       .  S
C355        O363   1.264       .  A
C355        C520   1.440       .  S
C356        O361   1.268       .  A
C356        O359   1.264       .  A
C356        C525   1.443       .  S
Cd357       O364   2.428       .  S
Cd357       O363   2.458       .  S
Cd357       O362   2.448       .  S
Cd357       O358   2.486       .  S
Cd357       O361   2.498       .  S
Cd357       O359   2.460       .  S
C360        O364   1.262       .  A
C360        C516   1.438       .  S
O365        C368   1.267       .  A
O365       Cd370   2.485       .  S
C366        O375   1.263       .  A
C366        O371   1.268       .  A
C366        C544   1.438       .  S
O367        C373   1.269       .  A
O367       Cd370   2.500       .  S
C368        O376   1.264       .  A
C368        C565   1.440       .  S
C369        O374   1.268       .  A
C369        O372   1.264       .  A
C369        C509   1.441       .  S
Cd370       O377   2.426       .  S
Cd370       O376   2.457       .  S
Cd370       O375   2.447       .  S
Cd370       O371   2.487       .  S
Cd370       O374   2.494       .  S
Cd370       O372   2.457       .  S
C373        O377   1.262       .  A
C373        C521   1.438       .  S
O378        C381   1.267       .  A
O378       Cd383   2.485       .  S
C379        O388   1.263       .  A
C379        O384   1.268       .  A
C379        C513   1.439       .  S
O380        C386   1.269       .  A
O380       Cd383   2.499       .  S
C381        O389   1.264       .  A
C381        C505   1.440       .  S
C382        O387   1.268       .  A
C382        O385   1.264       .  A
C382        C512   1.441       .  S
Cd383       O390   2.424       .  S
Cd383       O389   2.459       .  S
Cd383       O388   2.448       .  S
Cd383       O384   2.490       .  S
Cd383       O387   2.493       .  S
Cd383       O385   2.458       .  S
C386        O390   1.262       .  A
C386        C536   1.437       .  S
O391        C394   1.267       .  A
O391       Cd396   2.487       .  S
C392        O401   1.263       .  A
C392        O397   1.268       .  A
C392        C493   1.437       .  S
O393        C399   1.267       .  A
O393       Cd396   2.487       .  S
C394        O402   1.264       .  A
C394        C728   1.440       .  S
C395        O400   1.269       .  A
C395        O398   1.262       .  A
C395        C500   1.437       .  S
Cd396       O403   2.463       .  S
Cd396       O402   2.460       .  S
Cd396       O401   2.446       .  S
Cd396       O397   2.486       .  S
Cd396       O400   2.497       .  S
Cd396       O398   2.427       .  S
C399        O403   1.264       .  A
C399        C504   1.440       .  S
O404        C407   1.267       .  A
O404       Cd409   2.487       .  S
C405        O414   1.263       .  A
C405        O410   1.268       .  A
C405        C488   1.437       .  S
O406        C412   1.267       .  A
O406       Cd409   2.486       .  S
C407        O415   1.264       .  A
C407        C517   1.440       .  S
C408        O413   1.269       .  A
C408        O411   1.262       .  A
C408        C489   1.437       .  S
Cd409       O416   2.463       .  S
Cd409       O415   2.458       .  S
Cd409       O414   2.445   1_655  S
Cd409       O410   2.486   1_655  S
Cd409       O413   2.497       .  S
Cd409       O411   2.428       .  S
C412        O416   1.264       .  A
C412        C501   1.440       .  S
O417        C420   1.267       .  A
O417       Cd422   2.487       .  S
C418        O427   1.263       .  A
C418        O423   1.268       .  A
C418        C477   1.438       .  S
O419        C425   1.266       .  A
O419       Cd422   2.488       .  S
C420        O428   1.263       .  A
C420        C700   1.439       .  S
C421        O426   1.269       .  A
C421        O424   1.262       .  A
C421        C496   1.436       .  S
Cd422       O429   2.463       .  S
Cd422       O428   2.458       .  S
Cd422       O427   2.445       .  S
Cd422       O423   2.491       .  S
Cd422       O426   2.494       .  S
Cd422       O424   2.428       .  S
C425        O429   1.264       .  A
C425        C481   1.441       .  S
O430        C433   1.267       .  A
O430       Cd435   2.488       .  S
C431        O440   1.263       .  A
C431        O436   1.268       .  A
C431        C492   1.438       .  S
O432        C438   1.267       .  A
O432       Cd435   2.490       .  S
C433        O441   1.264       .  A
C433        C508   1.440       .  S
C434        O439   1.269       .  A
C434        O437   1.262       .  A
C434        C476   1.437       .  S
Cd435       O442   2.461       .  S
Cd435       O441   2.458       .  S
Cd435       O440   2.448   1_545  S
Cd435       O436   2.489   1_545  S
Cd435       O439   2.497       .  S
Cd435       O437   2.426       .  S
C438        O442   1.264       .  A
C438        C484   1.441       .  S
O443        C446   1.268       .  A
O443       Cd448   2.490       .  S
C444        O453   1.263       .  A
C444        O449   1.267       .  A
C444        C740   1.440       .  S
O445        C451   1.269       .  A
O445       Cd448   2.496       .  S
C446        O454   1.263       .  A
C446        C497   1.438       .  S
C447        O452   1.267       .  A
C447        O450   1.264       .  A
C447        C472   1.441       .  S
Cd448       O455   2.426       .  S
Cd448       O454   2.447       .  S
Cd448       O453   2.457       .  S
Cd448       O449   2.488       .  S
Cd448       O452   2.490       .  S
Cd448       O450   2.461       .  S
C451        O455   1.262       .  A
C451        C480   1.437       .  S
O456        C459   1.268       .  A
O456       Cd461   2.492       .  S
C457        O466   1.263       .  A
C457        O462   1.267       .  A
C457        C540   1.439       .  S
O458        C464   1.269       .  A
O458       Cd461   2.494       .  S
C459        O467   1.263       .  A
C459        C473   1.438       .  S
C460        O465   1.266       .  A
C460        O463   1.264       .  A
C460        C469   1.441       .  S
Cd461       O468   2.426       .  S
Cd461       O467   2.445       .  S
Cd461       O466   2.458       .  S
Cd461       O462   2.486       .  S
Cd461       O465   2.489       .  S
Cd461       O463   2.462       .  S
C464        O468   1.262       .  A
C464        C485   1.436       .  S
C469        C470   1.209       .  T
C470        C471   1.417       .  S
C471        C472   1.209       .  T
C473        C474   1.207       .  T
C474        C475   1.415       .  S
C475        C476   1.207   1_455  T
C477        C478   1.207       .  T
C478        C479   1.414       .  S
C479        C480   1.207       .  T
C481        C482   1.209       .  T
C482        C483   1.417   1_565  S
C483        C484   1.209       .  T
C485        C486   1.207   1_545  T
C486        C487   1.414       .  S
C487        C488   1.207       .  T
C489        C490   1.207       .  T
C490        C491   1.415       .  S
C491        C492   1.208       .  T
C493        C494   1.207       .  T
C494        C495   1.414       .  S
C495        C496   1.207       .  T
C497        C498   1.208       .  T
C498        C499   1.415       .  S
C499        C500   1.207       .  T
C501        C502   1.209       .  T
C502        C503   1.417   1_655  S
C503        C504   1.209       .  T
C505        C506   1.209       .  T
C506        C507   1.417       .  S
C507        C508   1.209       .  T
C509        C510   1.209       .  T
C510        C511   1.418   1_455  S
C511        C512   1.209       .  T
C513        C514   1.208       .  T
C514        C515   1.416       .  S
C515        C516   1.208       .  T
C517        C518   1.209       .  T
C518        C519   1.417       .  S
C519        C520   1.209       .  T
C521        C522   1.207       .  T
C522        C523   1.415       .  S
C523        C524   1.208       .  T
C525        C526   1.210       .  T
C526        C527   1.419       .  S
C527        C528   1.210       .  T
C529        C530   1.207       .  T
C530        C531   1.415       .  S
C531        C532   1.208       .  T
C533        C534   1.207       .  T
C534        C535   1.415       .  S
C535        C536   1.207       .  T
C537        C538   1.208       .  T
C538        C539   1.416       .  S
C539        C540   1.208       .  T
C541        C542   1.207       .  T
C542        C543   1.415       .  S
C543        C544   1.207       .  T
C545        C546   1.208       .  T
C546        C547   1.416       .  S
C547        C548   1.208       .  T
C549        C550   1.209       .  T
C550        C551   1.418   1_545  S
C551        C552   1.209       .  T
C553        C554   1.209       .  T
C554        C555   1.417       .  S
C555        C556   1.209       .  T
C557        C558   1.209   1_655  T
C558        C559   1.417       .  S
C559        C560   1.209       .  T
C561        C562   1.207   1_565  T
C562        C563   1.415       .  S
C563        C564   1.208       .  T
C565        C566   1.209       .  T
C566        C567   1.417       .  S
C567        C568   1.209       .  T
C569        C570   1.207       .  T
C570        C571   1.414       .  S
C571        C572   1.207       .  T
C573        C574   1.208       .  T
C574        C575   1.416       .  S
C575        C576   1.209       .  T
C577        C578   1.207       .  T
C578        C579   1.414       .  S
C579        C580   1.207   1_655  T
C581        C582   1.207       .  T
C582        C583   1.415       .  S
C583        C584   1.207       .  T
C585        C586   1.209       .  T
C586        C587   1.417       .  S
C587        C588   1.209       .  T
C589        C590   1.207       .  T
C590        C591   1.415       .  S
C591        C592   1.207       .  T
C593        C594   1.207       .  T
C594        C595   1.414       .  S
C595        C596   1.207       .  T
C597        C598   1.209       .  T
C598        C599   1.418       .  S
C599        C600   1.209   1_565  T
C601        C602   1.209       .  T
C602        C603   1.417   1_545  S
C603        C604   1.209       .  T
C605        C606   1.207       .  T
C606        C607   1.414       .  S
C607        C608   1.207       .  T
C609        C610   1.207       .  T
C610        C611   1.414       .  S
C611        C612   1.207       .  T
C613        C614   1.209       .  T
C614        C615   1.417   1_655  S
C615        C616   1.209       .  T
C617        C618   1.207       .  T
C618        C619   1.414       .  S
C619        C620   1.207       .  T
C621        C622   1.207       .  T
C622        C623   1.415       .  S
C623        C624   1.207       .  T
C625        C626   1.207       .  T
C626        C627   1.414       .  S
C627        C628   1.207       .  T
C629        C630   1.207       .  T
C630        C631   1.415       .  S
C631        C632   1.207       .  T
C633        C634   1.209       .  T
C634        C635   1.418       .  S
C635        C636   1.209       .  T
C637        C638   1.209       .  T
C638        C639   1.417       .  S
C639        C640   1.209       .  T
C641        C642   1.209       .  T
C642        C643   1.418       .  S
C643        C644   1.209       .  T
C645        C646   1.208       .  T
C646        C647   1.416   1_554  S
C647        C648   1.208       .  T
C649        C650   1.208       .  T
C650        C651   1.415       .  S
C651        C652   1.207   1_455  T
C653        C654   1.209       .  T
C654        C655   1.417       .  S
C655        C656   1.209       .  T
C657        C658   1.208       .  T
C658        C659   1.416       .  S
C659        C660   1.208       .  T
C661        C662   1.210       .  T
C662        C663   1.419   1_565  S
C663        C664   1.210       .  T
C665        C666   1.209       .  T
C666        C667   1.417   1_546  S
C667        C668   1.209       .  T
C669        C670   1.209       .  T
C670        C671   1.417       .  S
C671        C672   1.209       .  T
C673        C674   1.207   1_545  T
C674        C675   1.415       .  S
C675        C676   1.208       .  T
C677        C678   1.208       .  T
C678        C679   1.416       .  S
C679        C680   1.208       .  T
C681        C682   1.209       .  T
C682        C683   1.417   1_656  S
C683        C684   1.209       .  T
C685        C686   1.208       .  T
C686        C687   1.415       .  S
C687        C688   1.207       .  T
C689        C690   1.207       .  T
C690        C691   1.415       .  S
C691        C692   1.208       .  T
C693        C694   1.209       .  T
C694        C695   1.418       .  S
C695        C696   1.209   1_655  T
C697        C698   1.208       .  T
C698        C699   1.416   1_545  S
C699        C700   1.208       .  T
C701        C702   1.208       .  T
C702        C703   1.416       .  S
C703        C704   1.208       .  T
C705        C706   1.209   1_545  T
C706        C707   1.417       .  S
C707        C708   1.209       .  T
C709        C710   1.208       .  T
C710        C711   1.415       .  S
C711        C712   1.208       .  T
C713        C714   1.209       .  T
C714        C715   1.417       .  S
C715        C716   1.209       .  T
C717        C718   1.210       .  T
C718        C719   1.419       .  S
C719        C720   1.210   1_455  T
C721        C722   1.207       .  T
C722        C723   1.415       .  S
C723        C724   1.208       .  T
C725        C726   1.209       .  T
C726        C727   1.417   1_655  S
C727        C728   1.209       .  T
C729        C730   1.208       .  T
C730        C731   1.416       .  S
C731        C732   1.208       .  T
C733        C734   1.207       .  T
C734        C735   1.414       .  S
C735        C736   1.207       .  T
C737        C738   1.209       .  T
C738        C739   1.417       .  S
C739        C740   1.209       .  T
C741        C742   1.207   1_455  T
C742        C743   1.414       .  S
C743        C744   1.207       .  T
C745        C746   1.208       .  T
C746        C747   1.415       .  S
C747        C748   1.207   1_545  T
C749        C750   1.209       .  T
C750        C751   1.418       .  S
C751        C752   1.209       .  T
C753        C754   1.208       .  T
C754        C755   1.416       .  S
C755        C756   1.208       .  T
