geometry optimzed in LAMMPS
_audit_creation_date              2020-12-01 
_audit_creation_method            'lammps2cif' 
_symmetry_space_group_name_H-M    'P1' 
_symmetry_Int_Tables_number       1 
_symmetry_cell_setting            triclinic 
loop_ 
_symmetry_equiv_pos_as_xyz 
  x,y,z 
_cell_length_a                    38.43568817 
_cell_length_b                    37.21521671719188 
_cell_length_c                    50.84314963532053 
_cell_angle_alpha                 90.03042453726172 
_cell_angle_beta                  90.1119169042613 
_cell_angle_gamma                 89.99173504530472 
loop_ 
_atom_site_label 
_atom_site_type_symbol 
_atom_site_fract_x 
_atom_site_fract_y 
_atom_site_fract_z 
_atom_site_charge 
C1          C  0.43824714  0.31531037  0.35784773     0.03300
C2          C  0.45081003  0.34574040  0.34476560    -0.12900
C3          C  0.44169141  0.35252247  0.31862015     0.00800
C4          C  0.41609673  0.33152187  0.30654287    -0.11400
C5          C  0.40089432  0.30270479  0.32005180     0.03300
C6          C  0.41296502  0.29386825  0.34531342    -0.10800
H7          H  0.46794534  0.36417979  0.35484488     0.08900
H8          H  0.40818577  0.33736952  0.28654633     0.06400
H9          H  0.40263388  0.27049526  0.35524736     0.06300
C10         C  0.39848768  0.35118787  0.13906711     0.03300
C11         C  0.42882728  0.36641445  0.14991757    -0.12900
C12         C  0.43890384  0.35804273  0.17572799     0.00800
C13         C  0.42036372  0.33201260  0.18981399    -0.11400
C14         C  0.39220394  0.31402663  0.17828732     0.03300
C15         C  0.38129934  0.32369101  0.15289912    -0.10800
H16         H  0.44274401  0.38702032  0.13921815     0.08900
H17         H  0.42722254  0.32652852  0.21012306     0.06400
H18         H  0.35769415  0.31205763  0.14488738     0.06300
C19         C  0.17529007  0.35053833  0.35933067     0.03300
C20         C  0.19546213  0.32432120  0.34657983    -0.12900
C21         C  0.18776624  0.31400277  0.32071089     0.00800
C22         C  0.15987341  0.33027249  0.30748774    -0.11400
C23         C  0.13820167  0.35477037  0.32062411     0.03300
C24         C  0.14516564  0.36357346  0.34692721    -0.10800
H25         H  0.21875048  0.31404146  0.35599948     0.08900
H26         H  0.15536128  0.32431488  0.28688248     0.06400
H27         H  0.12893287  0.38299045  0.35694608     0.06300
C28         C  0.43368235  0.10821784  0.13942422     0.03300
C29         C  0.40370925  0.12142388  0.15195752    -0.12900
C30         C  0.39688145  0.11377337  0.17847844     0.00800
C31         C  0.41812514  0.08922411  0.19185292    -0.11400
C32         C  0.44760066  0.07464869  0.17946752     0.03300
C33         C  0.45626417  0.08602214  0.15398132    -0.10800
H34         H  0.38566645  0.13815586  0.14116437     0.08900
H35         H  0.41215344  0.08209588  0.21200835     0.06400
H36         H  0.48048702  0.07725699  0.14536585     0.06300
C37         C  0.45987469  0.38086824  0.30399819     0.42600
N38         N  0.99685924  0.42173427  0.29458315     0.01500
C39         C  0.00006523  0.02890897  0.18328241    -0.06400
H40         H  0.01009785  0.39280853  0.16272765     0.07000
C41         C  0.12649191  0.39539184  0.21822893    -0.06700
Co42       Co  0.47669303  0.46179149  0.24611803     0.74200
N43         N  0.00321129  0.42331020  0.19858620    -0.25900
Co44       Co  0.04305418  0.46150076  0.20011370     0.74100
C45         C  0.11643210  0.37828981  0.19356028     0.42700
N46         N  0.09915325  0.41950391  0.27959189     0.01100
N47         N  0.08117318  0.42154052  0.20188870     0.01200
N48         N  0.45754375  0.02815619  0.21399047    -0.46700
H49         H  0.42734597  0.39277914  0.26686217     0.07000
N50         N  0.47869789  0.42302996  0.21669747     0.01500
N51         N  0.08253012  0.49995036  0.20286654     0.01300
C52         C  0.11853024  0.04243458  0.19470554     0.42900
N53         N  0.07457743  0.41985356  0.29766485    -0.25400
C54         C  0.45127889  0.02477338  0.28041079    -0.06300
N55         N  0.98903473  0.39736272  0.31250568    -0.46500
N56         N  0.09055078  0.02465836  0.18518197    -0.46700
C57         C  0.45948470  0.03900147  0.30629792     0.42600
N58         N  0.48004014  0.50165890  0.21757385     0.01500
N59         N  0.07608646  0.49755720  0.29907406    -0.25400
N60         N  0.47431218  0.42246468  0.27497112    -0.25900
N61         N  0.10114150  0.49764031  0.28135494     0.01100
H62         H  0.06883827  0.02685648  0.33533457     0.07000
H63         H  0.15019170  0.03072161  0.23214968     0.07100
N64         N  0.00511299  0.50147038  0.19990483    -0.25900
N65         N  0.10339335  0.42163298  0.22167425    -0.25500
N66         N  0.99748303  0.49924103  0.29595341     0.01500
C67         C  0.46350987  0.38128450  0.18997489     0.42900
C68         C  0.08134135  0.39368726  0.31513638    -0.06800
N69         N  0.10442226  0.49962881  0.22289844    -0.25500
H70         H  0.14833793  0.39024549  0.23109332     0.07100
N71         N  0.45449608  0.39854906  0.21223142    -0.46700
H72         H  0.06676203  0.38847781  0.33290684     0.07000
C73         C  0.11726181  0.03701372  0.30956501     0.42700
C74         C  0.45001386  0.39730992  0.27904955    -0.06300
Co75       Co  0.03621517  0.45968920  0.29735422     0.73800
N76         N  0.12271045  0.39423259  0.28367401    -0.46500
C77         C  0.46850539  0.04671963  0.19278706     0.43000
N78         N  0.98807075  0.02153851  0.31514496    -0.46500
Co79       Co  0.10251101  0.45969812  0.25138846     0.73900
C80         C  0.12790147  0.02577157  0.21964403    -0.06800
C81         C  0.99558466  0.39807112  0.18052026    -0.06300
N82         N  0.47563916  0.49995993  0.27581924    -0.25900
N83         N  0.08822795  0.39614386  0.18430278    -0.46600
H84         H  0.01608832  0.03492483  0.16639485     0.07000
C85         C  0.08391238  0.02177281  0.31778246    -0.06800
Cl86       Cl  0.03961624  0.46075036  0.24877605    -0.49800
C87         C  0.11310349  0.37634336  0.30550971     0.42800
H88         H  0.42855728  0.02938540  0.26828259     0.07000
N89         N  0.12620843  0.02088031  0.28683505    -0.46500
C90         C  0.14789717  0.31258708  0.14098541     0.03300
C91         C  0.12686765  0.33780567  0.15444700    -0.12900
C92         C  0.13625366  0.34995565  0.17967346     0.00800
C93         C  0.16542365  0.33489918  0.19203681    -0.11400
C94         C  0.18644377  0.31014943  0.17898879     0.03300
C95         C  0.17882274  0.30093708  0.15298061    -0.10800
H96         H  0.10316549  0.34774945  0.14550432     0.08900
H97         H  0.17174923  0.34206348  0.21204965     0.06400
H98         H  0.19698717  0.28441825  0.14224704     0.06300
C99         C  0.39775225  0.06754558  0.36050456     0.03300
C100        C  0.38221070  0.09767586  0.34846626    -0.12900
C101        C  0.39019503  0.10651695  0.32236132     0.00800
C102        C  0.41695133  0.08826488  0.30949174    -0.11400
C103        C  0.43530450  0.06073385  0.32208627     0.03300
C104        C  0.42550469  0.05016586  0.34754057    -0.10800
H105        H  0.36190000  0.11231999  0.35852288     0.08900
H106        H  0.42262969  0.09461816  0.28912734     0.06400
H107        H  0.43743039  0.02660046  0.35623382     0.06300
C108        C  0.14281499  0.10793848  0.35894196     0.03300
C109        C  0.13083087  0.07515006  0.34853466    -0.12900
C110        C  0.13759876  0.06566260  0.32245164     0.00800
C111        C  0.16242368  0.08500611  0.30822240    -0.11400
C112        C  0.17860028  0.11525645  0.31925290     0.03300
C113        C  0.16749680  0.12758722  0.34408695    -0.10800
H114        H  0.11461800  0.05768708  0.36024041     0.08900
H115        H  0.16856912  0.07678850  0.28835166     0.06400
H116        H  0.17784594  0.15267846  0.35141589     0.06300
C117        C  0.17429552  0.07574671  0.13867079     0.03300
C118        C  0.19104917  0.10510421  0.15081871    -0.12900
C119        C  0.18496440  0.11304835  0.17738780     0.00800
C120        C  0.15999915  0.09338930  0.19133109    -0.11400
C121        C  0.14144431  0.06567503  0.17904979     0.03300
C122        C  0.14898133  0.05664903  0.15291332    -0.10800
H123        H  0.21130347  0.11945506  0.14039271     0.08900
H124        H  0.15596329  0.09877258  0.21206730     0.06400
H125        H  0.13725083  0.03281023  0.14446525     0.06300
C126        C  0.37075796  0.28999898  0.19452971     0.42600
N127        N  0.32999195  0.25287516  0.20396260     0.01500
C128        C  0.22708203  0.25652972  0.31623589    -0.06400
H129        H  0.35936141  0.23397679  0.33396091     0.07000
C130        C  0.35134065  0.11919623  0.28156254    -0.06700
Co131      Co  0.29200613  0.27560089  0.25246412     0.74200
N132        N  0.32792640  0.24586947  0.29984458    -0.25900
Co133      Co  0.28883805  0.20729374  0.29868862     0.74100
C134        C  0.36671382  0.12936345  0.30673728     0.42700
N135        N  0.32724771  0.14647908  0.21869296     0.01100
N136        N  0.32559991  0.16605668  0.29739499     0.01200
N137        N  0.22930138  0.29955670  0.28486860    -0.46700
H138        H  0.36075454  0.32324385  0.23184766     0.07000
N139        N  0.32912753  0.27163002  0.28206618     0.01500
N140        N  0.24979986  0.16861982  0.29613386     0.01300
C141        C  0.20667228  0.13385264  0.30460798     0.42900
N142        N  0.32754678  0.17277231  0.20128525    -0.25400
C143        C  0.23109504  0.30338163  0.21792747    -0.06300
N144        N  0.35305507  0.26108523  0.18554730    -0.46500
N145        N  0.22454674  0.16277800  0.31335154    -0.46700
C146        C  0.21546861  0.29280971  0.19291689     0.42600
N147        N  0.25309666  0.27439302  0.28091820     0.01500
N148        N  0.25223980  0.17460689  0.20043567    -0.25400
N149        N  0.33051171  0.27573023  0.22381599    -0.25900
N150        N  0.25094123  0.14900018  0.21836214     0.01100
H151        H  0.22235648  0.18449931  0.16509079     0.07000
H152        H  0.21810567  0.09898080  0.26801525     0.07100
N153        N  0.25232718  0.24885658  0.29891761    -0.25900
N154        N  0.32597890  0.14319411  0.27752520    -0.25500
N155        N  0.25478026  0.25473454  0.20317499     0.01500
C156        C  0.37211989  0.28275942  0.30762909     0.42900
C157        C  0.35268574  0.16669756  0.18376304    -0.06800
N158        N  0.25001389  0.14495037  0.27679129    -0.25500
H159        H  0.35688201  0.09621713  0.26922421     0.07100
N160        N  0.35504736  0.29430158  0.28604451    -0.46700
H161        H  0.35848960  0.18350548  0.16699114     0.07000
C162        C  0.20906836  0.13652475  0.19193411     0.42700
C163        C  0.35577272  0.29982288  0.21980860    -0.06300
Co164      Co  0.29113208  0.21372132  0.20172460     0.73800
N165        N  0.35149745  0.12189736  0.21391194    -0.46500
C166        C  0.21152449  0.28982316  0.30656114     0.43000
N167        N  0.23138582  0.26242844  0.18491950    -0.46500
Co168      Co  0.28861195  0.14511459  0.24780955     0.73900
C169        C  0.22367839  0.12191054  0.28038659    -0.06800
C170        C  0.35408576  0.25064757  0.31700501    -0.06300
N171        N  0.25525386  0.27830942  0.22255403    -0.25900
N172        N  0.34903720  0.15821360  0.31570828    -0.46600
H173        H  0.22102529  0.24126396  0.33373310     0.07000
C174        C  0.22700478  0.16873204  0.18261671    -0.06800
Cl175      Cl  0.29013906  0.21040580  0.25016021    -0.49800
C176        C  0.36842451  0.13294528  0.19203598     0.42800
H177        H  0.22632904  0.32676319  0.23002875     0.07000
N178        N  0.22567484  0.12563804  0.21392389    -0.46500
N179        N  0.28075960  0.46275763  0.53835560    -0.36400
N180        N  0.32869947  0.49258217  0.49952080    -0.57000
N181        N  0.28931449  0.45537127  0.45920315    -0.36400
N182        N  0.24443191  0.42183187  0.49820745    -0.57000
C183        C  0.30577528  0.47664714  0.55412500     0.27100
C184        C  0.26191218  0.43949930  0.55305386     0.27100
C185        C  0.31819886  0.46554454  0.44600848     0.27100
C186        C  0.27447946  0.42835680  0.44535301     0.27100
C187        C  0.33800370  0.01253823  0.52057441     0.35800
C188        C  0.34170538  0.00929055  0.47808670     0.35800
C189        C  0.22214545  0.41706878  0.51836065     0.35800
C190        C  0.22673165  0.41358425  0.47610498     0.35800
C191        C  0.30218977  0.46230390  0.57924743    -0.21700
C192        C  0.27515446  0.43846888  0.57838234    -0.21700
C193        C  0.32194188  0.44457563  0.42364749    -0.21700
C194        C  0.29432313  0.42105478  0.42323817    -0.21700
C195        C  0.35788275  0.04162096  0.51254215    -0.22800
C196        C  0.35962012  0.03996402  0.48554554    -0.22800
C197        C  0.19017007  0.40538075  0.50914563    -0.22800
C198        C  0.19297632  0.40348231  0.48220880    -0.22800
C199        C  0.33005250  0.00371303  0.54694675    -0.18100
C200        C  0.23123874  0.42149945  0.54496959    -0.18100
C201        C  0.24179449  0.41264703  0.45087212    -0.18100
C202        C  0.33906774  0.99571519  0.45216984    -0.18100
H203        H  0.31669241  0.46849246  0.59686689     0.14800
H204        H  0.26572560  0.42293720  0.59488396     0.14800
H205        H  0.34208268  0.44663871  0.40887220     0.14800
H206        H  0.28898019  0.40137092  0.40807929     0.14800
H207        H  0.36974840  0.06202859  0.52477765     0.13100
H208        H  0.37307518  0.05881591  0.47297229     0.13100
H209        H  0.16732356  0.39892128  0.52061875     0.13100
H210        H  0.17277550  0.39497037  0.46871965     0.13100
H211        H  0.27535770  0.47064351  0.51921925     0.26300
H212        H  0.27859148  0.46832316  0.47538004     0.26300
N213        N  0.04171652  0.21121807  0.03780282    -0.36400
N214        N  0.08083445  0.25071278  0.99733377    -0.57000
N215        N  0.03993040  0.21441810  0.95717031    -0.36400
N216        N  0.49794065  0.17811599  0.99779774    -0.57000
C217        C  0.06086288  0.23329026  0.05321064     0.27100
C218        C  0.01817394  0.19458145  0.05340310     0.27100
C219        C  0.05709197  0.23860196  0.94200897     0.27100
C220        C  0.01368636  0.20046691  0.94256290     0.27100
C221        C  0.09898271  0.26140199  0.01874788     0.35800
C222        C  0.09786094  0.26352872  0.97606625     0.35800
C223        C  0.48657204  0.15941461  0.01887249     0.35800
C224        C  0.48602728  0.16073263  0.97629609     0.35800
C225        C  0.04951697  0.23030487  0.07903384    -0.21700
C226        C  0.02327939  0.20550486  0.07923414    -0.21700
C227        C  0.04188791  0.23894498  0.91714672    -0.21700
C228        C  0.01428958  0.21567955  0.91771907    -0.21700
C229        C  0.12774058  0.28118493  0.01109047    -0.22800
C230        C  0.12667031  0.28315493  0.98416481    -0.22800
C231        C  0.46667118  0.13041119  0.01068835    -0.22800
C232        C  0.46699011  0.13079611  0.98372789    -0.22800
C233        C  0.08920809  0.25518017  0.04518844    -0.18100
C234        C  0.49290000  0.16892596  0.04537580    -0.18100
C235        C  0.49063780  0.17243740  0.95010896    -0.18100
C236        C  0.08666425  0.25952762  0.94958431    -0.18100
H237        H  0.05923604  0.24427356  0.09620812     0.14800
H238        H  0.00962491  0.19669728  0.09664971     0.10800
H239        H  0.04977591  0.25373198  0.89989440     0.14800
H240        H  0.99709181  0.20999558  0.90135385     0.14800
H241        H  0.14700511  0.29375357  0.02363038     0.13100
H242        H  0.14490399  0.29786700  0.97211693     0.13100
H243        H  0.45341652  0.11079106  0.02272567     0.13100
H244        H  0.45405496  0.11158481  0.97106447     0.13100
H245        H  0.04540395  0.20687392  0.01799099     0.26300
H246        H  0.04683371  0.20625062  0.97587744     0.26300
N247        N  0.03897601  0.21509574  0.46258219    -0.36400
N248        N  0.99931805  0.25366776  0.50301653    -0.57000
N249        N  0.04235859  0.21961434  0.54304667    -0.36400
N250        N  0.07937396  0.17808153  0.50232355    -0.57000
C251        C  0.01380782  0.23046182  0.44777638     0.27100
C252        C  0.05585988  0.19110886  0.44712687     0.27100
C253        C  0.01768435  0.23506956  0.55842236     0.27100
C254        C  0.05967165  0.19529232  0.55796754     0.27100
C255        C  0.48612826  0.27017288  0.48155907     0.35800
C256        C  0.48660247  0.27132410  0.52414062     0.35800
C257        C  0.09580894  0.16473347  0.48092185     0.35800
C258        C  0.09777823  0.16729803  0.52355531     0.35800
C259        C  0.01458807  0.21603842  0.42265226    -0.21700
C260        C  0.04138958  0.19202161  0.42204282    -0.21700
C261        C  0.02012205  0.22085197  0.58361846    -0.21700
C262        C  0.04599111  0.19545928  0.58318121    -0.21700
C263        C  0.46451040  0.29813374  0.48899555    -0.22800
C264        C  0.46407888  0.29826502  0.51594788    -0.22800
C265        C  0.12422663  0.14443402  0.48867727    -0.22800
C266        C  0.12593275  0.14668346  0.51557351    -0.22800
C267        C  0.49170490  0.25906637  0.45536309    -0.18100
C268        C  0.08482285  0.16950261  0.45454307    -0.18100
C269        C  0.08855298  0.17397983  0.55009371    -0.18100
C270        C  0.49369598  0.26236148  0.55067911    -0.18100
H271        H  0.99808900  0.22276221  0.40609106     0.14800
H272        H  0.04930662  0.17772811  0.40458370     0.14800
H273        H  0.00513250  0.22788171  0.60082456     0.14800
H274        H  0.05422576  0.17939122  0.59980417     0.14800
H275        H  0.44975009  0.31591474  0.47636895     0.13100
H276        H  0.44880317  0.31622167  0.52804169     0.13100
H277        H  0.14195515  0.12949620  0.47629704     0.13100
H278        H  0.14546043  0.13401704  0.52779931     0.13100
H279        H  0.04547703  0.22226588  0.48156420     0.26300
H280        H  0.04834768  0.22652596  0.52389631     0.26300
N281        N  0.27929454  0.45819764  0.96217361    -0.36400
N282        N  0.31792060  0.41749499  0.00190582    -0.57000
N283        N  0.27905660  0.45606616  0.04145517    -0.36400
N284        N  0.23791413  0.49355355  0.00150704    -0.57000
C285        C  0.29588471  0.43300026  0.94776437     0.27100
C286        C  0.25332588  0.47162567  0.94706301     0.27100
C287        C  0.29287060  0.42864138  0.05551688     0.27100
C288        C  0.25206176  0.46928763  0.05542558     0.27100
C289        C  0.33870232  0.41240143  0.98089911     0.35800
C290        C  0.33721155  0.40972820  0.02336374     0.35800
C291        C  0.22764998  0.01268356  0.98027230     0.35800
C292        C  0.22876095  0.01272155  0.02294542     0.35800
C293        C  0.28014016  0.42985658  0.92336420    -0.21700
C294        C  0.25384514  0.45465861  0.92268653    -0.21700
C295        C  0.27412550  0.42412407  0.07855664    -0.21700
C296        C  0.24835185  0.44985420  0.07851545    -0.21700
C297        C  0.37132490  0.40092144  0.98891723    -0.22800
C298        C  0.37045916  0.39945900  0.01597836    -0.22800
C299        C  0.21105038  0.04388792  0.98830456    -0.22800
C300        C  0.21221828  0.04416498  0.01535732    -0.22800
C301        C  0.32763267  0.41646334  0.95466373    -0.18100
C302        C  0.23161613  0.00099985  0.95394441    -0.18100
C303        C  0.23333520  0.00082789  0.04913375    -0.18100
C304        C  0.32409735  0.41034536  0.04925158    -0.18100
H305        H  0.28803412  0.41284951  0.90715775     0.14800
H306        H  0.23821049  0.46018338  0.90552220     0.14800
H307        H  0.27915125  0.40495172  0.09410853     0.14800
H308        H  0.22965934  0.45449502  0.09404661     0.14800
H309        H  0.39333827  0.39432074  0.97658314     0.13100
H310        H  0.39166703  0.39143897  0.02872086     0.13100
H311        H  0.19917549  0.06430387  0.97610864     0.13100
H312        H  0.20158035  0.06488153  0.02793064     0.13100
H313        H  0.28748382  0.46790510  0.98029702     0.26300
H314        H  0.28940717  0.46742913  0.02451458     0.26300
C315        C  0.39068240  0.36577900  0.85924360     0.03300
C316        C  0.37109314  0.34087353  0.84459406    -0.12900
C317        C  0.38120738  0.33135792  0.81898906     0.00800
C318        C  0.41026006  0.34823459  0.80769829    -0.11400
C319        C  0.42911032  0.37415432  0.82173047     0.03300
C320        C  0.41964778  0.38220228  0.84761603    -0.10800
H321        H  0.34801598  0.32898866  0.85315835     0.08900
H322        H  0.41786042  0.34191948  0.78774647     0.06400
H323        H  0.43463047  0.40156326  0.85879883     0.06300
C324        C  0.42503965  0.10498172  0.85979760     0.03300
C325        C  0.39950286  0.12588817  0.84697557    -0.12900
C326        C  0.38946527  0.11782217  0.82110082     0.00800
C327        C  0.40581015  0.08968504  0.80775577    -0.11400
C328        C  0.43035802  0.06817022  0.82050054     0.03300
C329        C  0.43745858  0.07390914  0.84718858    -0.10800
H330        H  0.38969171  0.15016314  0.85609897     0.08900
H331        H  0.40050445  0.08547060  0.78702368     0.06400
H332        H  0.45543713  0.05631026  0.85723455     0.06300
C333        C  0.18215645  0.06816675  0.85802888     0.03300
C334        C  0.15144491  0.05700054  0.84527155    -0.12900
C335        C  0.14433310  0.06679749  0.81924233     0.00800
C336        C  0.16608573  0.09134564  0.80656950    -0.11400
C337        C  0.19610931  0.10434644  0.81909386     0.03300
C338        C  0.20518219  0.09080814  0.84403255    -0.10800
H339        H  0.13273635  0.04038479  0.85544193     0.08900
H340        H  0.15981969  0.10012809  0.78681924     0.06400
H341        H  0.22986805  0.09837851  0.85258603     0.06300
C342        C  0.14804977  0.33323918  0.85965298     0.03300
C343        C  0.13598072  0.36498101  0.84755062    -0.12900
C344        C  0.14156537  0.37098335  0.82063436     0.00800
C345        C  0.16494123  0.34901414  0.80692713    -0.11400
C346        C  0.18226786  0.32114906  0.81997802     0.03300
C347        C  0.17264066  0.31236750  0.84572879    -0.10800
H348        H  0.12005015  0.38370149  0.85824005     0.08900
H349        H  0.16949713  0.35349384  0.78614384     0.06400
H350        H  0.18287190  0.28773151  0.85393930     0.06300
C351        C  0.15438274  0.10353966  0.63858396     0.03300
C352        C  0.18320384  0.11774952  0.65218978    -0.12900
C353        C  0.18817440  0.11029643  0.67895267     0.00800
C354        C  0.16613225  0.08578306  0.69159704    -0.11400
C355        C  0.13893080  0.06928891  0.67782872     0.03300
C356        C  0.13275648  0.07867209  0.65155684    -0.10800
H357        H  0.19972670  0.13740151  0.64267859     0.08900
H358        H  0.16937991  0.08046313  0.71242471     0.06400
H359        H  0.10942288  0.06880807  0.64200897     0.06300
C360        C  0.38586184  0.06564843  0.64256076     0.03300
C361        C  0.36607400  0.09126709  0.65638273    -0.12900
C362        C  0.37815921  0.10591420  0.68024288     0.00800
C363        C  0.40851210  0.09189170  0.69171453    -0.11400
C364        C  0.42763732  0.06532628  0.67856750     0.03300
C365        C  0.41791966  0.05517281  0.65313379    -0.10800
H366        H  0.34128222  0.09982623  0.64856436     0.08900
H367        H  0.41684466  0.10110806  0.71094101     0.06400
H368        H  0.43476886  0.03770035  0.64191860     0.06300
C369        C  0.36180793  0.30373916  0.80406787     0.42600
N370        N  0.32655736  0.26069106  0.79519298     0.01500
C371        C  0.32720080  0.15284264  0.68376000    -0.06400
H372        H  0.31279219  0.28849726  0.66355394     0.07000
C373        C  0.19684776  0.28089622  0.71782553    -0.06700
Co374      Co  0.34898081  0.22067724  0.74684177     0.74200
N375        N  0.32091388  0.25817783  0.69931834    -0.25900
Co376      Co  0.28281764  0.21818047  0.70052790     0.74100
C377        C  0.20696966  0.29833892  0.69323105     0.42700
N378        N  0.22376335  0.25637676  0.77982973     0.01100
N379        N  0.24317896  0.25620914  0.70212181     0.01200
N380        N  0.37026369  0.15443315  0.71418467    -0.46700
H381        H  0.39485818  0.29163210  0.76728054     0.07000
N382        N  0.34535696  0.25942006  0.71753750     0.01500
N383        N  0.24521827  0.17775047  0.70286481     0.01300
C384        C  0.21142001  0.13314346  0.69478913     0.42900
N385        N  0.24824252  0.25747739  0.79805836    -0.25400
C386        C  0.37583154  0.15767042  0.78064074    -0.06300
N387        N  0.33334784  0.28603582  0.81280493    -0.46500
N388        N  0.23838860  0.15247329  0.68519807    -0.46700
C389        C  0.36719210  0.14243412  0.80610000     0.42600
N390        N  0.34735132  0.18056688  0.71797102     0.01500
N391        N  0.25209842  0.17923192  0.79877554    -0.25400
N392        N  0.34927358  0.26031978  0.77574156    -0.25900
N393        N  0.22723603  0.17792362  0.78087302     0.01100
H394        H  0.26351569  0.14660659  0.83284848     0.07000
H395        H  0.17943664  0.14359856  0.73217106     0.07100
N396        N  0.32209231  0.18015241  0.70038348    -0.25900
N397        N  0.22062145  0.25523562  0.72163839    -0.25500
N398        N  0.32966936  0.18279553  0.79654679     0.01500
C399        C  0.35874542  0.30215444  0.69109173     0.42900
C400        C  0.23970607  0.28298062  0.81560308    -0.06800
N401        N  0.22343396  0.17697003  0.72283067    -0.25500
H402        H  0.17458593  0.28560015  0.73031938     0.07100
N403        N  0.36843705  0.28504658  0.71328050    -0.46700
H404        H  0.25385905  0.28918978  0.83344094     0.07000
C405        C  0.21653875  0.13308745  0.80620191     0.42700
C406        C  0.37241386  0.28663754  0.77952620    -0.06300
Co407      Co  0.28914241  0.22018193  0.79781453     0.73800
N408        N  0.19858960  0.27999994  0.78379335    -0.46500
C409        C  0.35905188  0.13564137  0.69301013     0.43000
N410        N  0.33859977  0.15953063  0.81514404    -0.46500
Co411      Co  0.22318763  0.21661414  0.75134496     0.73900
C412        C  0.20140862  0.14954193  0.71964548    -0.06800
C413        C  0.32745249  0.28389295  0.68141481    -0.06300
N414        N  0.35146466  0.18261241  0.77650693    -0.25900
N415        N  0.23582486  0.28138958  0.68447380    -0.46600
H416        H  0.31071503  0.14639272  0.66717172     0.07000
C417        C  0.24752753  0.15197724  0.81577386    -0.06800
Cl418      Cl  0.28605659  0.21902273  0.74917302    -0.49800
C419        C  0.20703096  0.29817350  0.80576578     0.42800
H420        H  0.39820548  0.15275352  0.76827865     0.07000
N421        N  0.20541795  0.15098311  0.78468830    -0.46500
C422        C  0.42191470  0.32962080  0.63880792     0.03300
C423        C  0.44280640  0.35402391  0.65325439    -0.12900
C424        C  0.43380290  0.36426887  0.67890840     0.00800
C425        C  0.40499312  0.34833034  0.69089868    -0.11400
C426        C  0.38318449  0.32529684  0.67662397     0.03300
C427        C  0.38999982  0.31888630  0.64994544    -0.10800
H428        H  0.46754724  0.36307787  0.64560681     0.08900
H429        H  0.39997594  0.35317775  0.71158215     0.06400
H430        H  0.37186299  0.30290240  0.63880563     0.06300
C431        C  0.17411304  0.36172822  0.63953536     0.03300
C432        C  0.14604251  0.37755611  0.65285218    -0.12900
C433        C  0.13961927  0.36963456  0.67922146     0.00800
C434        C  0.15987041  0.34383964  0.69201498    -0.11400
C435        C  0.18725958  0.32655357  0.67904228     0.03300
C436        C  0.19512934  0.33651809  0.65299177    -0.10800
H437        H  0.12975514  0.39701734  0.64283710     0.08900
H438        H  0.15477282  0.33788378  0.71243459     0.06400
H439        H  0.21800586  0.32548964  0.64364219     0.06300
C440        C  0.45719307  0.38731916  0.69455249     0.42600
N441        N  0.49701607  0.42567529  0.70390320     0.01500
C442        C  0.10128770  0.42797700  0.81571487    -0.06400
H443        H  0.46945007  0.44317765  0.83488439     0.07000
C444        C  0.46982717  0.05741257  0.78008269    -0.06700
Co445      Co  0.03580263  0.40468190  0.75261441     0.74200
N446        N  0.49954591  0.43276149  0.80000435    -0.25900
Co447      Co  0.03644625  0.47330451  0.79845419     0.74100
C448        C  0.45376957  0.04578580  0.80463462     0.42700
N449        N  0.49713398  0.03263549  0.71838953     0.01100
N450        N  0.49768976  0.01225018  0.79643116     0.01200
N451        N  0.10038178  0.38460327  0.78463021    -0.46700
H452        H  0.46809509  0.35461496  0.73200251     0.07000
N453        N  0.49888644  0.40684472  0.78233858     0.01500
N454        N  0.07328434  0.01390135  0.79618563     0.01300
C455        C  0.11456418  0.05042283  0.80540258     0.42900
N456        N  0.49720761  0.00633004  0.70098157    -0.25400
C457        C  0.09689780  0.37845348  0.71867636    -0.06300
N458        N  0.47395248  0.41679589  0.68555788    -0.46500
N459        N  0.09775930  0.02075848  0.81378450    -0.46700
C460        C  0.11229010  0.38880192  0.69368466     0.42600
N461        N  0.07506983  0.40817908  0.78093916     0.01500
N462        N  0.07234415  0.00687492  0.70055014    -0.25400
N463        N  0.49721905  0.40286761  0.72381624    -0.25900
N464        N  0.07285824  0.03266388  0.71842551     0.01100
H465        H  0.10235802  0.99791143  0.66523477     0.07000
H466        H  0.10358772  0.08449779  0.76840504     0.07100
N467        N  0.07503788  0.43391438  0.79879488    -0.25900
N468        N  0.49687753  0.03530632  0.77671837    -0.25500
N469        N  0.07237026  0.42642539  0.70342451     0.01500
C470        C  0.45812726  0.39339932  0.80916497     0.42900
C471        C  0.47223755  0.01244214  0.68325302    -0.06800
N472        N  0.07280939  0.03739770  0.77679391    -0.25500
H473        H  0.46331888  0.07998878  0.76761717     0.07100
N474        N  0.47442136  0.38267353  0.78703324    -0.46700
H475        H  0.46681099  0.99580052  0.66629415     0.07000
C476        C  0.11397953  0.04648597  0.69196640     0.42700
C477        C  0.47258816  0.37798265  0.71983345    -0.06300
Co478      Co  0.03471711  0.46631014  0.70167516     0.73800
N479        N  0.47304457  0.05721122  0.71350241    -0.46500
C480        C  0.11846400  0.39548768  0.80598223     0.43000
N481        N  0.09578787  0.41869226  0.68523238    -0.46500
Co482      Co  0.03492211  0.03526772  0.74758386     0.73900
C483        C  0.09822095  0.06151120  0.78074957    -0.06800
C484        C  0.47471582  0.42663448  0.81786075    -0.06300
N485        N  0.07238793  0.40314529  0.72295816    -0.25900
N486        N  0.47288624  0.01815071  0.81397217    -0.46600
H487        H  0.10703976  0.44383612  0.83301707     0.07000
C488        C  0.09722556  0.01358763  0.68272251    -0.06800
Cl489      Cl  0.03544668  0.46989850  0.75004550    -0.49800
C490        C  0.45649583  0.04631626  0.69150569     0.42800
H491        H  0.10177223  0.35522807  0.73090804     0.07000
N492        N  0.09727412  0.05696848  0.71395973    -0.46500
C493        C  0.17900675  0.01947432  0.89228585    -0.20100
C494        C  0.19066580  0.05411544  0.88507784    -0.06700
C495        C  0.21076234  0.07358451  0.90378568     0.14200
C496        C  0.22415902  0.05559950  0.92589846    -0.20200
C497        C  0.21345901  0.02062486  0.93226321    -0.06700
C498        C  0.18796929  0.00390063  0.91642247     0.14100
C499        C  0.17049568  0.46916751  0.92406947    -0.23500
H500        H  0.16313382  0.00366200  0.87905565     0.15400
H501        H  0.24238496  0.06938587  0.93870165     0.15500
C502        C  0.21672497  0.11357097  0.90231558    -0.23500
H503        H  0.14192322  0.47339786  0.92491557     0.05700
H504        H  0.17898123  0.45929210  0.94362876     0.08900
H505        H  0.17605417  0.44810112  0.90918512     0.08900
H506        H  0.20027089  0.12684113  0.88728060     0.08900
H507        H  0.24461034  0.11917928  0.89842188     0.08900
H508        H  0.20950367  0.12604493  0.92139564     0.05700
C509        C  0.35409706  0.36661764  0.92888247    -0.20100
C510        C  0.34986542  0.40365195  0.93274698    -0.06700
C511        C  0.36294849  0.42801177  0.91389718     0.14200
C512        C  0.37665422  0.41466682  0.89041441    -0.20200
C513        C  0.37920366  0.37755454  0.88573219    -0.06700
C514        C  0.36964495  0.35324117  0.90592435     0.14100
C515        C  0.37617398  0.31336446  0.90431594    -0.23500
H516        H  0.34473662  0.34804030  0.94368942     0.15400
H517        H  0.38449607  0.43346520  0.87526759     0.15500
C518        C  0.36226536  0.46811987  0.91837494    -0.23500
H519        H  0.39131322  0.30466945  0.92182116     0.05700
H520        H  0.39150136  0.30552059  0.88680895     0.08900
H521        H  0.35098562  0.29877254  0.90403998     0.08900
H522        H  0.37611275  0.47459147  0.93696373     0.08900
H523        H  0.33520013  0.47819934  0.91955187     0.08900
H524        H  0.37528830  0.48289089  0.90216789     0.05700
C525        C  0.14388398  0.15786770  0.61109985    -0.20100
C526        C  0.14279172  0.12012500  0.61330414    -0.06700
C527        C  0.12703179  0.10006260  0.59278833     0.14200
C528        C  0.10906089  0.11822304  0.57275843    -0.20200
C529        C  0.10917196  0.15590416  0.57121602    -0.06700
C530        C  0.12833303  0.17585650  0.58992715     0.14100
C531        C  0.13261038  0.21607353  0.58763935    -0.23500
H532        H  0.15589499  0.17373929  0.62649258     0.15400
H533        H  0.09533075  0.10282615  0.55789725     0.15500
C534        C  0.12951283  0.05971255  0.59087996    -0.23500
H535        H  0.15001367  0.22691891  0.60320283     0.05700
H536        H  0.10724125  0.22992049  0.58954459     0.08900
H537        H  0.14423973  0.22277833  0.56828441     0.08900
H538        H  0.10326029  0.04766129  0.59309580     0.08900
H539        H  0.14727861  0.04798553  0.60577083     0.08900
H540        H  0.14005646  0.05217566  0.57131506     0.05700
C541        C  0.45844430  0.33322098  0.59807053    -0.20100
C542        C  0.43580552  0.31273995  0.61396017    -0.06700
C543        C  0.43147036  0.27553904  0.60763881     0.14200
C544        C  0.44836742  0.26124539  0.58552626    -0.20200
C545        C  0.47315107  0.28100558  0.57157520    -0.06700
C546        C  0.47878022  0.31735658  0.57828254     0.14100
C547        C  0.00714783  0.33915587  0.56546558    -0.23500
H548        H  0.46188747  0.36157468  0.60205039     0.15400
H549        H  0.44421930  0.23334796  0.58018756     0.15500
C550        C  0.41225896  0.24911890  0.62488296    -0.23500
H551        H  0.00897020  0.36654932  0.57403907     0.05700
H552        H  0.00258522  0.34223339  0.54409246     0.08900
H553        H  0.03253520  0.32556340  0.56860742     0.08900
H554        H  0.38379465  0.25162998  0.62203422     0.08900
H555        H  0.41965063  0.25280998  0.64582710     0.08900
H556        H  0.41883068  0.22088779  0.61977809     0.05700
C557        C  0.08527582  0.30761925  0.91567646    -0.20100
C558        C  0.10463126  0.28125638  0.92879123    -0.06700
C559        C  0.13951340  0.27543475  0.92106274     0.14200
C560        C  0.15384796  0.29660839  0.90095927    -0.20200
C561        C  0.13311154  0.31950327  0.88522964    -0.06700
C562        C  0.09756844  0.32422363  0.89273647     0.14100
C563        C  0.07063958  0.34304659  0.87598616    -0.23500
H564        H  0.05877942  0.31259896  0.92202035     0.15400
H565        H  0.18119644  0.29316193  0.89659767     0.15500
C566        C  0.16206729  0.24628018  0.93267390    -0.23500
H567        H  0.04376877  0.33567015  0.88194398     0.05700
H568        H  0.07316591  0.33497059  0.85505739     0.08900
H569        H  0.07251820  0.37255645  0.87844506     0.08900
H570        H  0.14818867  0.22942973  0.94721189     0.08900
H571        H  0.18509163  0.25851365  0.94239940     0.08900
H572        H  0.17119137  0.22819529  0.91672925     0.05700
C573        C  0.42117692  0.13499719  0.90366645    -0.20100
C574        C  0.44202175  0.11860921  0.88431417    -0.06700
C575        C  0.47887771  0.11996331  0.88724080     0.14200
C576        C  0.49317512  0.13514701  0.90998484    -0.20200
C577        C  0.47243677  0.15262265  0.92860312    -0.06700
C578        C  0.43596000  0.15342418  0.92508031     0.14100
C579        C  0.41277886  0.17558206  0.94266274    -0.23500
H580        H  0.39314789  0.13490458  0.90134874     0.15400
H581        H  0.02120031  0.13551533  0.91252812     0.15500
C582        C  0.50392132  0.10914276  0.86573857    -0.23500
H583        H  0.38528286  0.17499352  0.93591080     0.05700
H584        H  0.42159949  0.20399152  0.94251645     0.08900
H585        H  0.41330677  0.16535273  0.96308898     0.08900
H586        H  0.49550536  0.12057553  0.84658809     0.08900
H587        H  0.50623019  0.07955285  0.86446829     0.08900
H588        H  0.03059100  0.11943575  0.86960695     0.05700
C589        C  0.35393733  0.07178113  0.59980337    -0.20100
C590        C  0.37340344  0.05003533  0.61710194    -0.06700
C591        C  0.38046704  0.01393188  0.60949104     0.14200
C592        C  0.37141390  0.00251688  0.58417495    -0.20200
C593        C  0.34852189  0.02268645  0.56862101    -0.06700
C594        C  0.33942968  0.05781125  0.57664627     0.14100
C595        C  0.31352565  0.08079566  0.56201972    -0.23500
H596        H  0.34851950  0.09950850  0.60479537     0.15400
H597        H  0.37767284  0.47525532  0.57819324     0.15500
C598        C  0.39303976  0.98505832  0.62814384    -0.23500
H599        H  0.29181620  0.08803984  0.57539632     0.05700
H600        H  0.30204454  0.06718255  0.54469250     0.08900
H601        H  0.32641995  0.10582160  0.55524941     0.08900
H602        H  0.39158549  0.99308417  0.64907470     0.08900
H603        H  0.42002378  0.97705543  0.62304350     0.08900
H604        H  0.37611782  0.46102863  0.62638572     0.05700
C605        C  0.20511423  0.36896752  0.56828693    -0.20100
C606        C  0.20843407  0.40642772  0.56592478    -0.06700
C607        C  0.19496977  0.42871950  0.58594890     0.14200
C608        C  0.18403214  0.41319665  0.60951102    -0.20200
C609        C  0.18358116  0.37569323  0.61303580    -0.06700
C610        C  0.19168909  0.35329396  0.59133927     0.14100
C611        C  0.18501495  0.31335654  0.59184362    -0.23500
H612        H  0.21421401  0.35191982  0.55243621     0.15400
H613        H  0.17657837  0.43082795  0.62551832     0.15500
C614        C  0.19307466  0.46906096  0.58341786    -0.23500
H615        H  0.18960345  0.30097400  0.57226944     0.05700
H616        H  0.15748931  0.30821253  0.59727443     0.08900
H617        H  0.20241689  0.29966313  0.60598879     0.08900
H618        H  0.20126406  0.47872138  0.56375543     0.08900
H619        H  0.20988991  0.48181405  0.59855396     0.08900
H620        H  0.16581126  0.47800325  0.58647129     0.05700
C621        C  0.18207308  0.02645516  0.07293089    -0.20100
C622        C  0.21827360  0.02216814  0.07119281    -0.06700
C623        C  0.23985999  0.03838407  0.09035872     0.14200
C624        C  0.22462682  0.05657597  0.11152757    -0.20200
C625        C  0.18832080  0.06044259  0.11369719    -0.06700
C626        C  0.16687242  0.04629460  0.09343649     0.14100
C627        C  0.12814036  0.05243677  0.09225315    -0.23500
H628        H  0.16559334  0.51474572  0.05787518     0.15400
H629        H  0.24136126  0.06694652  0.12693184     0.15500
C630        C  0.27904153  0.03704520  0.08847613    -0.23500
H631        H  0.12115135  0.06413272  0.07285775     0.05700
H632        H  0.11883906  0.07152923  0.10740946     0.08900
H633        H  0.11431472  0.02644277  0.09460153     0.08900
H634        H  0.28749463  0.04800563  0.06921579     0.08900
H635        H  0.28855227  0.00908830  0.09055468     0.08900
H636        H  0.29166207  0.05322581  0.10418528     0.05700
C637        C  0.14942690  0.14444520  0.40060083    -0.20100
C638        C  0.12875303  0.12169835  0.38473311    -0.06700
C639        C  0.09455538  0.11336468  0.39378142     0.14200
C640        C  0.08454074  0.12355562  0.41918153    -0.20200
C641        C  0.10327865  0.14961770  0.43311298    -0.06700
C642        C  0.13603658  0.16064700  0.42346837     0.14100
C643        C  0.15593115  0.19102949  0.43613882    -0.23500
H644        H  0.17559778  0.15119723  0.39462003     0.15400
H645        H  0.05890539  0.11604785  0.42620530     0.15500
C646        C  0.06569861  0.09937443  0.37628697    -0.23500
H647        H  0.17998286  0.19756026  0.42505486     0.05700
H648        H  0.16375054  0.18396629  0.45644532     0.08900
H649        H  0.13947203  0.21554652  0.43661040     0.08900
H650        H  0.06007264  0.07085426  0.38104098     0.08900
H651        H  0.07139369  0.10259523  0.35507795     0.08900
H652        H  0.04159523  0.11524350  0.37956701     0.05700
C653        C  0.33341370  0.02729819  0.40956835    -0.20100
C654        C  0.35557219  0.01528653  0.42968081    -0.06700
C655        C  0.39188987  0.02041671  0.42691478     0.14200
C656        C  0.40461118  0.03947676  0.40502792    -0.20200
C657        C  0.38236300  0.05130045  0.38475307    -0.06700
C658        C  0.34623632  0.04363432  0.38674142     0.14100
C659        C  0.32110805  0.04942715  0.36423171    -0.23500
H660        H  0.30568381  0.02248864  0.41133157     0.15400
H661        H  0.43239090  0.04390080  0.40329326     0.15500
C662        C  0.41804444  0.00472416  0.44580042    -0.23500
H663        H  0.29570533  0.03611880  0.36791021     0.05700
H664        H  0.33185759  0.03775517  0.34585735     0.08900
H665        H  0.31548894  0.07833805  0.36147624     0.08900
H666        H  0.40589728  0.48831976  0.46145518     0.08900
H667        H  0.43319442  0.02670226  0.45514642     0.08900
H668        H  0.43619247  0.98694329  0.43488566     0.05700
C669        C  0.12141147  0.32153752  0.09657906    -0.20100
C670        C  0.13730113  0.29809924  0.11473274    -0.06700
C671        C  0.14014404  0.26098182  0.10812903     0.14200
C672        C  0.12815072  0.24914627  0.08358743    -0.20200
C673        C  0.10995382  0.27207530  0.06663986    -0.06700
C674        C  0.10634785  0.30871708  0.07322373     0.14100
C675        C  0.08467961  0.33378870  0.05664456    -0.23500
H676        H  0.11921357  0.34984719  0.10125336     0.15400
H677        H  0.12988565  0.22086029  0.07859303     0.15500
C678        C  0.15176009  0.23253093  0.12748190    -0.23500
H679        H  0.08320249  0.36108452  0.06541530     0.05700
H680        H  0.05775683  0.32320561  0.05493840     0.08900
H681        H  0.09605928  0.33648986  0.03674279     0.08900
H682        H  0.13963044  0.23714354  0.14699378     0.08900
H683        H  0.18047431  0.23191404  0.12915401     0.08900
H684        H  0.14377240  0.20521713  0.12102017     0.05700
C685        C  0.43490000  0.15600745  0.10469821    -0.20100
C686        C  0.44304036  0.12049763  0.11223336    -0.06700
C687        C  0.46224907  0.09890919  0.09432129     0.14200
C688        C  0.47849761  0.11523362  0.07272559    -0.20200
C689        C  0.47202197  0.15125754  0.06637982    -0.06700
C690        C  0.44758825  0.17084808  0.08130001     0.14100
C691        C  0.43541799  0.20766242  0.07286681    -0.23500
H692        H  0.41965495  0.17307063  0.11747347     0.15400
H693        H  0.99585358  0.09956688  0.06043376     0.15500
C694        C  0.46488486  0.05859346  0.09646571    -0.23500
H695        H  0.41522014  0.21845494  0.08632450     0.05700
H696        H  0.42393975  0.20598149  0.05284935     0.08900
H697        H  0.45722953  0.22708526  0.07258887     0.08900
H698        H  0.44740280  0.04734462  0.11168258     0.08900
H699        H  0.49218135  0.05069626  0.10071196     0.08900
H700        H  0.95685213  0.04623089  0.07749693     0.05700
C701        C  0.21177639  0.41860333  0.40798953    -0.20100
C702        C  0.22216946  0.39616437  0.42867716    -0.06700
C703        C  0.21598878  0.35881502  0.42696009     0.14200
C704        C  0.19867057  0.34499470  0.40480462    -0.20200
C705        C  0.18861018  0.36736687  0.38387262    -0.06700
C706        C  0.19583466  0.40473135  0.38535517     0.14100
C707        C  0.18930105  0.42993448  0.36259090    -0.23500
H708        H  0.21737923  0.44711539  0.40923596     0.15400
H709        H  0.19407375  0.31632573  0.40332636     0.15500
C710        C  0.22940857  0.33326340  0.44761341    -0.23500
H711        H  0.20020670  0.45710056  0.36636511     0.05700
H712        H  0.16103455  0.43343189  0.35921925     0.08900
H713        H  0.20183155  0.41933398  0.34451968     0.08900
H714        H  0.21685442  0.33860815  0.46680762     0.08900
H715        H  0.25800746  0.33643377  0.44968906     0.08900
H716        H  0.22399441  0.30483946  0.44234317     0.05700
C717        C  0.37130557  0.34411979  0.09469535    -0.20100
C718        C  0.38184786  0.36701179  0.11522976    -0.06700
C719        C  0.37264305  0.40391072  0.11403629     0.14200
C720        C  0.35530797  0.41709683  0.09175538    -0.20200
C721        C  0.34482170  0.39430421  0.07124246    -0.06700
C722        C  0.35223660  0.35711996  0.07302086     0.14100
C723        C  0.33835222  0.33075739  0.05307412    -0.23500
H724        H  0.37715201  0.31568308  0.09604304     0.15400
H725        H  0.34874614  0.44540169  0.09067878     0.15500
C726        C  0.37850677  0.42922639  0.13684889    -0.23500
H727        H  0.34454267  0.30259266  0.05858576     0.05700
H728        H  0.34987856  0.33569281  0.03347818     0.08900
H729        H  0.30962108  0.33329769  0.05173900     0.08900
H730        H  0.40660071  0.43455319  0.13966400     0.08900
H731        H  0.36734182  0.41760092  0.15508840     0.08900
H732        H  0.36577733  0.45564689  0.13353782     0.05700
C733        C  0.42826651  0.29263843  0.40332665    -0.20100
C734        C  0.45176835  0.30562671  0.38437055    -0.06700
C735        C  0.48785787  0.30629978  0.39049243     0.14200
C736        C  0.49879025  0.29552867  0.41549685    -0.20200
C737        C  0.47571568  0.27963057  0.43336130    -0.06700
C738        C  0.43991726  0.27790292  0.42713095     0.14100
C739        C  0.41363482  0.25885115  0.44410242    -0.23500
H740        H  0.40067055  0.29194983  0.39891879     0.15400
H741        H  0.02589880  0.29719396  0.42070430     0.15500
C742        C  0.51570741  0.31390497  0.37025943    -0.23500
H743        H  0.40089630  0.23724512  0.43249001     0.05700
H744        H  0.39349135  0.27826055  0.45065071     0.08900
H745        H  0.42523805  0.24613700  0.46172567     0.08900
H746        H  0.51817423  0.34310742  0.36660525     0.08900
H747        H  0.50993479  0.29939404  0.35166786     0.08900
H748        H  0.04148142  0.30617853  0.37759325     0.05700
C749        C  0.43744942  0.81601713  0.35806884     0.03300
C750        C  0.44952429  0.84676053  0.34506261    -0.12900
C751        C  0.44116199  0.85300647  0.31870298     0.00800
C752        C  0.41623242  0.83148940  0.30634430    -0.11400
C753        C  0.40120569  0.80251828  0.31975443     0.03300
C754        C  0.41306703  0.79387304  0.34509422    -0.10800
H755        H  0.46579627  0.86584341  0.35526962     0.08900
H756        H  0.40869353  0.83706845  0.28622328     0.06400
H757        H  0.40313150  0.77009852  0.35471839     0.06300
C758        C  0.39851394  0.85125203  0.13908909     0.03300
C759        C  0.42881014  0.86652093  0.14998027    -0.12900
C760        C  0.43884620  0.85815936  0.17580251     0.00800
C761        C  0.42031985  0.83208540  0.18985596    -0.11400
C762        C  0.39221800  0.81404470  0.17828512     0.03300
C763        C  0.38134731  0.82370987  0.15288952    -0.10800
H764        H  0.44272781  0.88714184  0.13929798     0.08900
H765        H  0.42714902  0.82659966  0.21017026     0.06400
H766        H  0.35777521  0.81204196  0.14484903     0.06300
C767        C  0.17531761  0.85051551  0.35934207     0.03300
C768        C  0.19551372  0.82432221  0.34658733    -0.12900
C769        C  0.18783167  0.81400176  0.32071687     0.00800
C770        C  0.15991775  0.83024934  0.30749705    -0.11400
C771        C  0.13821739  0.85472261  0.32064021     0.03300
C772        C  0.14518134  0.86352760  0.34694294    -0.10800
H773        H  0.21880905  0.81406104  0.35600802     0.08900
H774        H  0.15540883  0.82429165  0.28689168     0.06400
H775        H  0.12893692  0.88293045  0.35696621     0.06300
C776        C  0.43366455  0.60824030  0.13941789     0.03300
C777        C  0.40368370  0.62142651  0.15194848    -0.12900
C778        C  0.39684176  0.61374236  0.17846214     0.00800
C779        C  0.41807742  0.58917591  0.19182741    -0.11400
C780        C  0.44756199  0.57462069  0.17944225     0.03300
C781        C  0.45624364  0.58603528  0.15396910    -0.10800
H782        H  0.38564639  0.63816827  0.14115813     0.08900
H783        H  0.41209212  0.58201746  0.21197471     0.06400
H784        H  0.48047161  0.57728438  0.14535401     0.06300
C785        C  0.45949390  0.88129853  0.30414585     0.42600
N786        N  0.99680988  0.92179704  0.29464219     0.01500
C787        C  0.00004895  0.52891936  0.18326918    -0.06400
H788        H  0.01004856  0.89280566  0.16278005     0.07000
C789        C  0.12645968  0.89535193  0.21827139    -0.06700
Co790      Co  0.47673521  0.96193860  0.24621553     0.74200
N791        N  0.00318178  0.92332218  0.19863402    -0.25900
Co792      Co  0.04304918  0.96149165  0.20015798     0.74100
C793        C  0.11639682  0.87824989  0.19360444     0.42700
N794        N  0.09912737  0.91945334  0.27962807     0.01100
N795        N  0.08114689  0.92151100  0.20193199     0.01200
N796        N  0.45747396  0.52805086  0.21391946    -0.46700
H797        H  0.42715704  0.89322830  0.26693611     0.07000
N798        N  0.47866577  0.92314218  0.21679515     0.01500
N799        N  0.08254248  0.99992520  0.20291138     0.01300
C800        C  0.11851537  0.54245889  0.19466198     0.42900
N801        N  0.07456274  0.91981271  0.29771137    -0.25400
C802        C  0.45113910  0.52458997  0.28032838    -0.06300
N803        N  0.98889830  0.89747756  0.31258267    -0.46500
N804        N  0.09053848  0.52468132  0.18513563    -0.46700
C805        C  0.45936393  0.53881883  0.30621427     0.42600
N806        N  0.48011317  0.00177407  0.21766616     0.01500
N807        N  0.07617778  0.99750626  0.29916099    -0.25400
N808        N  0.47426295  0.92266439  0.27506696    -0.25900
N809        N  0.10120546  0.99757755  0.28141811     0.01100
H810        H  0.06855721  0.52703312  0.33516021     0.07000
H811        H  0.15017658  0.53075067  0.23210594     0.07100
N812        N  0.00513032  0.00148194  0.19993706    -0.25900
N813        N  0.10336725  0.92159833  0.22171638    -0.25500
N814        N  0.99752417  0.99929824  0.29600246     0.01500
C815        C  0.46344308  0.88140504  0.19006721     0.42900
C816        C  0.08133544  0.89363887  0.31517775    -0.06800
N817        N  0.10443498  0.99959981  0.22294392    -0.25500
H818        H  0.14830627  0.89020376  0.23113473     0.07100
N819        N  0.45443436  0.89868813  0.21232156    -0.46700
H820        H  0.06677409  0.88843778  0.33295828     0.07000
C821        C  0.11701360  0.53724168  0.30943076     0.42700
C822        C  0.44983024  0.89765621  0.27913887    -0.06300
Co823      Co  0.03622978  0.95969803  0.29741600     0.73800
N824        N  0.12267787  0.89417157  0.28369683    -0.46500
C825        C  0.46845154  0.54666109  0.19274121     0.43000
N826        N  0.98804600  0.52148263  0.31509746    -0.46500
Co827      Co  0.10251018  0.95965754  0.25143313     0.73900
C828        C  0.12788681  0.52580004  0.21959985    -0.06800
C829        C  0.99553762  0.89808358  0.18057124    -0.06300
N830        N  0.47576477  0.00012595  0.27591482    -0.25900
N831        N  0.08819692  0.89611207  0.18434581    -0.46600
H832        H  0.01608123  0.53496636  0.16639246     0.07000
C833        C  0.08370056  0.52192251  0.31764651    -0.06800
Cl834      Cl  0.03962129  0.96075672  0.24882627    -0.49800
C835        C  0.11308898  0.87628044  0.30553504     0.42800
H836        H  0.42841341  0.52920417  0.26820509     0.07000
N837        N  0.12606658  0.52104136  0.28674987    -0.46500
C838        C  0.14789588  0.81257831  0.14101645     0.03300
C839        C  0.12684950  0.83777650  0.15448587    -0.12900
C840        C  0.13622451  0.84991929  0.17971690     0.00800
C841        C  0.16539625  0.83486658  0.19208171    -0.11400
C842        C  0.18643252  0.81013866  0.17902769     0.03300
C843        C  0.17882497  0.80094143  0.15301380    -0.10800
H844        H  0.10314440  0.84771477  0.14554485     0.08900
H845        H  0.17171419  0.84201861  0.21209856     0.06400
H846        H  0.19700776  0.78444966  0.14227719     0.06300
C847        C  0.39774013  0.56745444  0.36046017     0.03300
C848        C  0.38222794  0.59760460  0.34842990    -0.12900
C849        C  0.39020078  0.60642935  0.32232055     0.00800
C850        C  0.41691420  0.58813933  0.30943440    -0.11400
C851        C  0.43523018  0.56057761  0.32201529     0.03300
C852        C  0.42544780  0.55002660  0.34747745    -0.10800
H853        H  0.36194411  0.61227658  0.35849647     0.08900
H854        H  0.42258311  0.59448509  0.28906700     0.06400
H855        H  0.43734941  0.52644398  0.35616458     0.06300
C856        C  0.14258059  0.60806970  0.35886544     0.03300
C857        C  0.13030056  0.57546767  0.34838177    -0.12900
C858        C  0.13732941  0.56585697  0.32236880     0.00800
C859        C  0.16240746  0.58503626  0.30826160    -0.11400
C860        C  0.17868430  0.61520206  0.31935884     0.03300
C861        C  0.16756978  0.62752020  0.34419669    -0.10800
H862        H  0.11358843  0.55835335  0.35998123     0.08900
H863        H  0.16865553  0.57677135  0.28842060     0.06400
H864        H  0.17808723  0.65245418  0.35169988     0.06300
C865        C  0.17429036  0.57579893  0.13864703     0.03300
C866        C  0.19105432  0.60513763  0.15081166    -0.12900
C867        C  0.18496511  0.61305935  0.17738422     0.00800
C868        C  0.15999178  0.59339860  0.19131375    -0.11400
C869        C  0.14142761  0.56570705  0.17901568     0.03300
C870        C  0.14896185  0.55670334  0.15287552    -0.10800
H871        H  0.21131817  0.61948802  0.14039582     0.08900
H872        H  0.15595454  0.59876394  0.21205233     0.06400
H873        H  0.13722334  0.53287658  0.14441566     0.06300
C874        C  0.37076427  0.78998773  0.19450131     0.42600
N875        N  0.33000073  0.75285053  0.20392687     0.01500
C876        C  0.22718541  0.75653961  0.31625583    -0.06400
H877        H  0.35983247  0.73367074  0.33366548     0.07000
C878        C  0.35134342  0.61913341  0.28153710    -0.06700
Co879      Co  0.29207024  0.77556816  0.25244743     0.74200
N880        N  0.32810261  0.74576899  0.29974813    -0.25900
Co881      Co  0.28892736  0.70726797  0.29869047     0.74100
C882        C  0.36673603  0.62929221  0.30670604     0.42700
N883        N  0.32721375  0.64644038  0.21868412     0.01100
N884        N  0.32564067  0.66600407  0.29738247     0.01200
N885        N  0.22940223  0.79955819  0.28488473    -0.46700
H886        H  0.36076553  0.82320785  0.23182624     0.07000
N887        N  0.32928199  0.77151620  0.28196121     0.01500
N888        N  0.24985787  0.66860285  0.29619030     0.01300
C889        C  0.20681905  0.63375134  0.30474481     0.42900
N890        N  0.32751777  0.67273807  0.20127937    -0.25400
C891        C  0.23110788  0.80337589  0.21795679    -0.06300
N892        N  0.35305946  0.76107474  0.18550873    -0.46500
N893        N  0.22466692  0.66271585  0.31345555    -0.46700
C894        C  0.21546266  0.79280258  0.19295170     0.42600
N895        N  0.25320777  0.77439950  0.28094196     0.01500
N896        N  0.25222178  0.67460327  0.20046025    -0.25400
N897        N  0.33052617  0.77569986  0.22378018    -0.25900
N898        N  0.25091177  0.64900006  0.21838979     0.01100
H899        H  0.22236805  0.68449187  0.16510266     0.07000
H900        H  0.21819890  0.59890118  0.26813084     0.07100
N901        N  0.25244150  0.74886693  0.29894368    -0.25900
N902        N  0.32599340  0.64314516  0.27751176    -0.25500
N903        N  0.25478084  0.75472708  0.20319299     0.01500
C904        C  0.37261950  0.78237569  0.30725429     0.42900
C905        C  0.35265093  0.66666141  0.18375464    -0.06800
N906        N  0.25004588  0.64493326  0.27684482    -0.25500
H907        H  0.35686240  0.59615067  0.26919668     0.07100
N908        N  0.35537383  0.79402447  0.28578281    -0.46700
H909        H  0.35845769  0.68347494  0.16698650     0.07000
C910        C  0.20905788  0.63652689  0.19194546     0.42700
C911        C  0.35578199  0.79979507  0.21977904    -0.06300
Co912      Co  0.29112354  0.71370142  0.20172415     0.73800
N913        N  0.35145780  0.62185421  0.21389830    -0.46500
C914        C  0.21161707  0.78982881  0.30657508     0.43000
N915        N  0.23137308  0.76242137  0.18494846    -0.46500
Co916      Co  0.28860263  0.64508997  0.24782159     0.73900
C917        C  0.22376106  0.62184794  0.28048782    -0.06800
C918        C  0.35446320  0.75039452  0.31675437    -0.06300
N919        N  0.25526990  0.77830141  0.22257281    -0.25900
N920        N  0.34908294  0.65814807  0.31568708    -0.46600
H921        H  0.22111032  0.74126326  0.33374436     0.07000
C922        C  0.22699756  0.66873137  0.18263464    -0.06800
Cl923      Cl  0.29016091  0.71037652  0.25015891    -0.49800
C924        C  0.36838141  0.63290351  0.19202116     0.42800
H925        H  0.22635377  0.82676122  0.23005709     0.07000
N926        N  0.22564821  0.62563756  0.21394255    -0.46500
N927        N  0.28074915  0.96277467  0.53836077    -0.36400
N928        N  0.32870468  0.99257438  0.49952710    -0.57000
N929        N  0.28932267  0.95535565  0.45921305    -0.36400
N930        N  0.24442474  0.92184153  0.49821823    -0.57000
C931        C  0.30577592  0.97664722  0.55412764     0.27100
C932        C  0.26190421  0.93951285  0.55305744     0.27100
C933        C  0.31820810  0.96552707  0.44601818     0.27100
C934        C  0.27449096  0.92833394  0.44536803     0.27100
C935        C  0.33800742  0.51253708  0.52057036     0.35800
C936        C  0.34170597  0.50929699  0.47808181     0.35800
C937        C  0.22213119  0.91709414  0.51836857     0.35800
C938        C  0.22673138  0.91358110  0.47611568     0.35800
C939        C  0.30220007  0.96228794  0.57924631    -0.21700
C940        C  0.27515930  0.93846106  0.57838107    -0.21700
C941        C  0.32195578  0.94454925  0.42366233    -0.21700
C942        C  0.29433915  0.92102441  0.42325672    -0.21700
C943        C  0.35789751  0.54161328  0.51254041    -0.22800
C944        C  0.35963454  0.53996031  0.48554338    -0.22800
C945        C  0.19015706  0.90540499  0.50915230    -0.22800
C946        C  0.19297252  0.90348723  0.48221666    -0.22800
C947        C  0.33005471  0.50371041  0.54694272    -0.18100
C948        C  0.23122303  0.92152763  0.54497667    -0.18100
C949        C  0.24180374  0.91262629  0.45088659    -0.18100
C950        C  0.33906137  0.49572819  0.45216361    -0.18100
H951        H  0.31671014  0.96845953  0.59686491     0.14800
H952        H  0.26573539  0.92292053  0.59487990     0.14800
H953        H  0.34209845  0.94660841  0.40888823     0.14800
H954        H  0.28899979  0.90133359  0.40810192     0.14800
H955        H  0.36977172  0.56201340  0.52477798     0.13100
H956        H  0.37309913  0.55880674  0.47297143     0.13100
H957        H  0.16730713  0.89895354  0.52062402     0.13100
H958        H  0.17277558  0.89496741  0.46872686     0.13100
H959        H  0.27533766  0.97067567  0.51922871     0.26300
H960        H  0.27859699  0.96831354  0.47538645     0.26300
N961        N  0.04168812  0.71126682  0.03782462    -0.36400
N962        N  0.08081010  0.75074777  0.99735028    -0.57000
N963        N  0.03991097  0.71443446  0.95718837    -0.36400
N964        N  0.49792567  0.67817937  0.99780755    -0.57000
C965        C  0.06085509  0.73331795  0.05323419     0.27100
C966        C  0.01816653  0.69460647  0.05342922     0.27100
C967        C  0.05708069  0.73860608  0.94202199     0.27100
C968        C  0.01367447  0.70047106  0.94257949     0.27100
C969        C  0.09894571  0.76146305  0.01876391     0.35800
C970        C  0.09782883  0.76356978  0.97608101     0.35800
C971        C  0.48655900  0.65947082  0.01887918     0.35800
C972        C  0.48600596  0.66080750  0.97630323     0.35800
C973        C  0.04954238  0.73029578  0.07906358    -0.21700
C974        C  0.02330402  0.70549589  0.07926446    -0.21700
C975        C  0.04189055  0.73892872  0.91715495    -0.21700
C976        C  0.01429137  0.71566424  0.91772907    -0.21700
C977        C  0.12768618  0.78127123  0.01110374    -0.22800
C978        C  0.12661983  0.78322581  0.98417740    -0.22800
C979        C  0.46665370  0.63047262  0.01069036    -0.22800
C980        C  0.46696530  0.63087064  0.98372987    -0.22800
C981        C  0.08918540  0.75522656  0.04520653    -0.18100
C982        C  0.49289504  0.66896872  0.04538413    -0.18100
C983        C  0.49061967  0.67251923  0.95011822    -0.18100
C984        C  0.08664623  0.75954195  0.94959762    -0.18100
H985        H  0.05928277  0.74424104  0.09624115     0.14800
H986        H  0.00967027  0.69666476  0.09668308     0.10800
H987        H  0.04978789  0.75370358  0.89989936     0.14800
H988        H  0.99710223  0.70996841  0.90136088     0.14800
H989        H  0.14694016  0.79386057  0.02364170     0.13100
H990        H  0.14484533  0.79794474  0.97212666     0.13100
H991        H  0.45340160  0.61084688  0.02272439     0.13100
H992        H  0.45402614  0.61166598  0.97106337     0.13100
H993        H  0.04534317  0.70695793  0.01800624     0.26300
H994        H  0.04680457  0.70628314  0.97590090     0.26300
N995        N  0.03769408  0.71366734  0.46258357    -0.36400
N996        N  0.99915610  0.75357702  0.50296200    -0.57000
N997        N  0.04305135  0.72030794  0.54304229    -0.36400
N998        N  0.07968224  0.67815755  0.50238989    -0.57000
C999        C  0.01442164  0.73111447  0.44724317     0.27100
C1000       C  0.05663392  0.69181949  0.44680605     0.27100
C1001       C  0.01852332  0.73596042  0.55846309     0.27100
C1002       C  0.06060832  0.69626335  0.55807074     0.27100
C1003       C  0.48374659  0.76800002  0.48145445     0.35800
C1004       C  0.48547018  0.77029703  0.52403035     0.35800
C1005       C  0.09515655  0.66360800  0.48100408     0.35800
C1006       C  0.09777353  0.66685460  0.52361579     0.35800
C1007       C  0.01821543  0.71969253  0.42142588    -0.21700
C1008       C  0.04514907  0.69583466  0.42103415    -0.21700
C1009       C  0.02143508  0.72231223  0.58379491    -0.21700
C1010       C  0.04732022  0.69696447  0.58340295    -0.21700
C1011       C  0.45975782  0.79377975  0.48904589    -0.22800
C1012       C  0.46030816  0.79468870  0.51597542    -0.22800
C1013       C  0.12270908  0.64209251  0.48878016    -0.22800
C1014       C  0.12491708  0.64482734  0.51562965    -0.22800
C1015       C  0.49071364  0.75830523  0.45507669    -0.18100
C1016       C  0.08462859  0.66904461  0.45456629    -0.18100
C1017       C  0.08911557  0.67438944  0.55015881    -0.18100
C1018       C  0.49417068  0.76288218  0.55055402    -0.18100
H1019       H  0.00361634  0.72815179  0.40429517     0.14800
H1020       H  0.05522047  0.68361974  0.40334389     0.14800
H1021       H  0.00663441  0.72957982  0.60104239     0.14800
H1022       H  0.05571722  0.68116271  0.60011542     0.14800
H1023       H  0.44317129  0.80994487  0.47655177     0.13100
H1024       H  0.44399578  0.81152907  0.52815904     0.13100
H1025       H  0.13969096  0.62621857  0.47642266     0.13100
H1026       H  0.14411573  0.63155766  0.52780447     0.13100
H1027       H  0.04118961  0.71757494  0.48241982     0.26300
H1028       H  0.04867005  0.72682343  0.52375514     0.26300
N1029       N  0.27929235  0.95817697  0.96217255    -0.36400
N1030       N  0.31792442  0.91748836  0.00191128    -0.57000
N1031       N  0.27904978  0.95605583  0.04145647    -0.36400
N1032       N  0.23789733  0.99352713  0.00150399    -0.57000
C1033       C  0.29589502  0.93298883  0.94776221     0.27100
C1034       C  0.25332945  0.97160798  0.94705740     0.27100
C1035       C  0.29287471  0.92864071  0.05552212     0.27100
C1036       C  0.25205180  0.96927154  0.05542605     0.27100
C1037       C  0.33870645  0.91239218  0.98090508     0.35800
C1038       C  0.33721856  0.90973268  0.02336986     0.35800
C1039       C  0.22766893  0.51271354  0.98027688     0.35800
C1040       C  0.22878618  0.51275027  0.02294890     0.35800
C1041       C  0.28016571  0.92985651  0.92335569    -0.21700
C1042       C  0.25386526  0.95465273  0.92267678    -0.21700
C1043       C  0.27413387  0.92412359  0.07856379    -0.21700
C1044       C  0.24835125  0.94984403  0.07851964    -0.21700
C1045       C  0.37133137  0.90092097  0.98892431    -0.22800
C1046       C  0.37046776  0.89946809  0.01598541    -0.22800
C1047       C  0.21107967  0.54392299  0.98831037    -0.22800
C1048       C  0.21225243  0.54419974  0.01536256    -0.22800
C1049       C  0.32763854  0.91644641  0.95466882    -0.18100
C1050       C  0.23162412  0.50102590  0.95394978    -0.18100
C1051       C  0.23335418  0.50085071  0.04913585    -0.18100
C1052       C  0.32410706  0.91035471  0.04925820    -0.18100
H1053       H  0.28807077  0.91285824  0.90714744     0.14800
H1054       H  0.23823646  0.96018150  0.90550989     0.14800
H1055       H  0.27916840  0.90495829  0.09411872     0.14800
H1056       H  0.22965923  0.95448314  0.09405141     0.14800
H1057       H  0.39334549  0.89432111  0.97659074     0.13100
H1058       H  0.39167807  0.89145700  0.02872854     0.13100
H1059       H  0.19920671  0.56434175  0.97611589     0.13100
H1060       H  0.20162174  0.56491953  0.02793646     0.13100
H1061       H  0.28746814  0.96787557  0.98030158     0.26300
H1062       H  0.28939546  0.96741800  0.02451405     0.26300
C1063       C  0.39069815  0.86578616  0.85924226     0.03300
C1064       C  0.37110459  0.84088006  0.84459272    -0.12900
C1065       C  0.38120700  0.83137660  0.81898107     0.00800
C1066       C  0.41024281  0.84826297  0.80768356    -0.11400
C1067       C  0.42909561  0.87417810  0.82171089     0.03300
C1068       C  0.41965367  0.88221815  0.84760342    -0.10800
H1069       H  0.34803440  0.82898594  0.85316051     0.08900
H1070       H  0.41782877  0.84195861  0.78772681     0.06400
H1071       H  0.43464499  0.90157729  0.85878111     0.06300
C1072       C  0.42504635  0.60502746  0.85981506     0.03300
C1073       C  0.39951454  0.62592642  0.84698300    -0.12900
C1074       C  0.38947164  0.61783445  0.82111523     0.00800
C1075       C  0.40580449  0.58967889  0.80778495    -0.11400
C1076       C  0.43034858  0.56817182  0.82054047     0.03300
C1077       C  0.43745914  0.57394000  0.84722305    -0.10800
H1078       H  0.38970983  0.65021384  0.85609268     0.08900
H1079       H  0.40049450  0.58544541  0.78705540     0.06400
H1080       H  0.45543739  0.55634905  0.85727661     0.06300
C1081       C  0.18216587  0.56820329  0.85803967     0.03300
C1082       C  0.15145817  0.55702976  0.84528050    -0.12900
C1083       C  0.14434625  0.56682178  0.81925078     0.00800
C1084       C  0.16609376  0.59138048  0.80657995    -0.11400
C1085       C  0.19611497  0.60438906  0.81910697     0.03300
C1086       C  0.20518777  0.59085076  0.84404550    -0.10800
H1087       H  0.13275144  0.54041119  0.85545004     0.08900
H1088       H  0.15982750  0.60016257  0.78682961     0.06400
H1089       H  0.22987191  0.59842448  0.85260011     0.06300
C1090       C  0.14806882  0.83323943  0.85966881     0.03300
C1091       C  0.13599007  0.86497655  0.84756403    -0.12900
C1092       C  0.14154333  0.87096139  0.82064196     0.00800
C1093       C  0.16491314  0.84898710  0.80693099    -0.11400
C1094       C  0.18226929  0.82114205  0.81998560     0.03300
C1095       C  0.17266420  0.81237281  0.84574431    -0.10800
H1096       H  0.12006928  0.88370222  0.85825700     0.08900
H1097       H  0.16944935  0.85345410  0.78614381     0.06400
H1098       H  0.18291333  0.78774828  0.85396028     0.06300
C1099       C  0.15450479  0.60359747  0.63871803     0.03300
C1100       C  0.18340518  0.61764968  0.65230941    -0.12900
C1101       C  0.18834984  0.61018140  0.67906942     0.00800
C1102       C  0.16625826  0.58571022  0.69171028    -0.11400
C1103       C  0.13900308  0.56931271  0.67794058     0.03300
C1104       C  0.13279529  0.57880878  0.65169793    -0.10800
H1105       H  0.20003003  0.63720418  0.64279480     0.08900
H1106       H  0.16950947  0.58035506  0.71253269     0.06400
H1107       H  0.10939190  0.56906896  0.64218287     0.06300
C1108       C  0.38592386  0.56564666  0.64254506     0.03300
C1109       C  0.36613064  0.59126029  0.65636946    -0.12900
C1110       C  0.37821489  0.60591075  0.68022882     0.00800
C1111       C  0.40856977  0.59190200  0.69169806    -0.11400
C1112       C  0.42769946  0.56534312  0.67855430     0.03300
C1113       C  0.41798638  0.55518031  0.65311952    -0.10800
H1114       H  0.34133316  0.59981031  0.64855628     0.08900
H1115       H  0.41689850  0.60112078  0.71092495     0.06400
H1116       H  0.43484055  0.53770851  0.64190806     0.06300
C1117       C  0.36182044  0.80375847  0.80405406     0.42600
N1118       N  0.32659163  0.76069890  0.79517814     0.01500
C1119       C  0.32725604  0.65282589  0.68375824    -0.06400
H1120       H  0.31302574  0.78827576  0.66343139     0.07000
C1121       C  0.19692821  0.78091390  0.71782665    -0.06700
Co1122     Co  0.34903906  0.72066152  0.74683851     0.74200
N1123       N  0.32102055  0.75812098  0.69928598    -0.25900
Co1124     Co  0.28288834  0.71816485  0.70052664     0.74100
C1125       C  0.20704382  0.79835926  0.69323402     0.42700
N1126       N  0.22380873  0.75640903  0.77982207     0.01100
N1127       N  0.24325308  0.75621682  0.70211525     0.01200
N1128       N  0.37031842  0.65440651  0.71418451    -0.46700
H1129       H  0.39489188  0.79164980  0.76727448     0.07000
N1130       N  0.34546231  0.75936637  0.71750766     0.01500
N1131       N  0.24529777  0.67773785  0.70289489     0.01300
C1132       C  0.21160251  0.63302080  0.69489802     0.42900
N1133       N  0.24828034  0.75750414  0.79805615    -0.25400
C1134       C  0.37585808  0.65766824  0.78064907    -0.06300
N1135       N  0.33336434  0.78605112  0.81278668    -0.46500
N1136       N  0.23853043  0.65238316  0.68527645    -0.46700
C1137       C  0.36720532  0.64243735  0.80610607     0.42600
N1138       N  0.34740454  0.68053613  0.71797741     0.01500
N1139       N  0.25213069  0.67925766  0.79878384    -0.25400
N1140       N  0.34931542  0.76032415  0.77573049    -0.25900
N1141       N  0.22726714  0.67795690  0.78088329     0.01100
H1142       H  0.26353453  0.64663593  0.83286135     0.07000
H1143       H  0.17960095  0.64351519  0.73226345     0.07100
N1144       N  0.32214732  0.68012667  0.70038849    -0.25900
N1145       N  0.22069668  0.75524703  0.72163321    -0.25500
N1146       N  0.32969902  0.68280955  0.79654757     0.01500
C1147       C  0.35899105  0.80192207  0.69095887     0.42900
C1148       C  0.23972588  0.78299043  0.81561009    -0.06800
N1149       N  0.22351314  0.67697168  0.72285889    -0.25500
H1150       H  0.17467161  0.78562090  0.73032498     0.07100
N1151       N  0.36862772  0.78489119  0.71319105    -0.46700
H1152       H  0.25386480  0.78918529  0.83345693     0.07000
C1153       C  0.21654924  0.63313103  0.80621755     0.42700
C1154       C  0.37244405  0.78665222  0.77951589    -0.06300
Co1155     Co  0.28917954  0.72020071  0.79781117     0.73800
N1156       N  0.19862297  0.78001771  0.78379010    -0.46500
C1157       C  0.35910522  0.63562424  0.69300523     0.43000
N1158       N  0.33861737  0.65954371  0.81514640    -0.46500
Co1159     Co  0.22324489  0.71663697  0.75134678     0.73900
C1160       C  0.20154917  0.64948275  0.71972059    -0.06800
C1161       C  0.32764332  0.78372980  0.68132029    -0.06300
N1162       N  0.35149967  0.68261672  0.77651152    -0.25900
N1163       N  0.23589651  0.78140353  0.68447019    -0.46600
H1164       H  0.31077692  0.64638890  0.66716352     0.07000
C1165       C  0.24754839  0.65200899  0.81578607    -0.06800
Cl1166     Cl  0.28611445  0.71903322  0.74917057    -0.49800
C1167       C  0.20704637  0.79817773  0.80577265     0.42800
H1168       H  0.39823260  0.65274174  0.76828947     0.07000
N1169       N  0.20543625  0.65102797  0.78470258    -0.46500
C1170       C  0.42199942  0.82958754  0.63858903     0.03300
C1171       C  0.44282821  0.85411498  0.65294468    -0.12900
C1172       C  0.43395906  0.86416918  0.67867416     0.00800
C1173       C  0.40524902  0.84808734  0.69071142    -0.11400
C1174       C  0.38344534  0.82501032  0.67646693     0.03300
C1175       C  0.39022539  0.81858205  0.64978919    -0.10800
H1176       H  0.46741712  0.86336057  0.64512081     0.08900
H1177       H  0.40029007  0.85288358  0.71140934     0.06400
H1178       H  0.37223334  0.80236279  0.63867455     0.06300
C1179       C  0.17413466  0.86172640  0.63954127     0.03300
C1180       C  0.14605963  0.87754349  0.65285900    -0.12900
C1181       C  0.13964724  0.86963153  0.67923092     0.00800
C1182       C  0.15991681  0.84384841  0.69202579    -0.11400
C1183       C  0.18731334  0.82656877  0.67904953     0.03300
C1184       C  0.19516722  0.83653008  0.65299622    -0.10800
H1185       H  0.12976211  0.89699399  0.64284196     0.08900
H1186       H  0.15482567  0.83789672  0.71244717     0.06400
H1187       H  0.21804481  0.82551021  0.64364267     0.06300
C1188       C  0.45734817  0.88719628  0.69434114     0.42600
N1189       N  0.49703256  0.92564343  0.70380764     0.01500
C1190       C  0.10125672  0.92796038  0.81572142    -0.06400
H1191       H  0.46945565  0.94318787  0.83484068     0.07000
C1192       C  0.46980648  0.55739958  0.78013061    -0.06700
Co1193     Co  0.03579057  0.90468388  0.75260196     0.74200
N1194       N  0.49950828  0.93276542  0.79994031    -0.25900
Co1195     Co  0.03643405  0.97331254  0.79843763     0.74100
C1196       C  0.45375552  0.54577620  0.80468342     0.42700
N1197       N  0.49712622  0.53265224  0.71844226     0.01100
N1198       N  0.49768759  0.51225421  0.79649036     0.01200
N1199       N  0.10035169  0.88458718  0.78463657    -0.46700
H1200       H  0.46817846  0.85448900  0.73180664     0.07000
N1201       N  0.49882759  0.90685014  0.78227257     0.01500
N1202       N  0.07329695  0.51390355  0.79620443     0.01300
C1203       C  0.11458000  0.55043207  0.80541251     0.42900
N1204       N  0.49722075  0.50635047  0.70103314    -0.25400
C1205       C  0.09690940  0.87845683  0.71868040    -0.06300
N1206       N  0.47406951  0.91672068  0.68540106    -0.46500
N1207       N  0.09777992  0.52076399  0.81379752    -0.46700
C1208       C  0.11230905  0.88880026  0.69369008     0.42600
N1209       N  0.07505066  0.90817414  0.78093653     0.01500
N1210       N  0.07236854  0.50688727  0.70057947    -0.25400
N1211       N  0.49721046  0.90282929  0.72371737    -0.25900
N1212       N  0.07286710  0.53266856  0.71846154     0.01100
H1213       H  0.10244337  0.49793735  0.66529038     0.07000
H1214       H  0.10358562  0.58450458  0.76841835     0.07100
N1215       N  0.07501931  0.93391101  0.79879120    -0.25900
N1216       N  0.49686268  0.53530373  0.77677374    -0.25500
N1217       N  0.07236913  0.92641667  0.70341418     0.01500
C1218       C  0.45809394  0.89341957  0.80912455     0.42900
C1219       C  0.47228875  0.51246746  0.68327641    -0.06800
N1220       N  0.07281293  0.53740184  0.77681462    -0.25500
H1221       H  0.46329515  0.57997131  0.76766144     0.07100
N1222       N  0.47436284  0.88268552  0.78698289    -0.46700
H1223       H  0.46689784  0.49583299  0.66630725     0.07000
C1224       C  0.11403435  0.54649665  0.69204889     0.42700
C1225       C  0.47265121  0.87788840  0.71966575    -0.06300
Co1226     Co  0.03470550  0.96630484  0.70165849     0.73800
N1227       N  0.47305449  0.55723535  0.71352727    -0.46500
C1228       C  0.11842749  0.89546291  0.80599434     0.43000
N1229       N  0.09579769  0.91868324  0.68522924    -0.46500
Co1230     Co  0.03492593  0.53526416  0.74760659     0.73900
C1231       C  0.09822427  0.56151838  0.78076460    -0.06800
C1232       C  0.47469445  0.92664842  0.81781024    -0.06300
N1233       N  0.07238775  0.90314200  0.72295206    -0.25900
N1234       N  0.47288206  0.51815260  0.81402992    -0.46600
H1235       H  0.10700384  0.94381601  0.83302632     0.07000
C1236       C  0.09728118  0.51360727  0.68277618    -0.06800
Cl1237     Cl  0.03543787  0.96990040  0.75002827    -0.49800
C1238       C  0.45654579  0.54634367  0.69151090     0.42800
H1239       H  0.10178995  0.85523852  0.73091789     0.07000
N1240       N  0.09729694  0.55696823  0.71402782    -0.46500
C1241       C  0.17901608  0.51950869  0.89229463    -0.20100
C1242       C  0.19067656  0.55414992  0.88508770    -0.06700
C1243       C  0.21077415  0.57361668  0.90379635     0.14200
C1244       C  0.22417216  0.55562811  0.92590683    -0.20200
C1245       C  0.21346832  0.52065448  0.93227067    -0.06700
C1246       C  0.18797397  0.50393555  0.91643187     0.14100
C1247       C  0.17050283  0.96912479  0.92405626    -0.23500
H1248       H  0.16314355  0.50369622  0.87906445     0.15400
H1249       H  0.24240075  0.56941148  0.93870962     0.15500
C1250       C  0.21673537  0.61360367  0.90233074    -0.23500
H1251       H  0.14192886  0.97334406  0.92490256     0.05700
H1252       H  0.17899160  0.95924817  0.94361441     0.08900
H1253       H  0.17606970  0.94806371  0.90916963     0.08900
H1254       H  0.20027996  0.62687643  0.88729787     0.08900
H1255       H  0.24462043  0.61921397  0.89843713     0.08900
H1256       H  0.20951461  0.62607313  0.92141255     0.05700
C1257       C  0.35408398  0.86659906  0.92887687    -0.20100
C1258       C  0.34987922  0.90363304  0.93275712    -0.06700
C1259       C  0.36300334  0.92799766  0.91392840     0.14200
C1260       C  0.37671739  0.91466275  0.89044423    -0.20200
C1261       C  0.37923339  0.87755134  0.88574073    -0.06700
C1262       C  0.36964307  0.85322979  0.90592024     0.14100
C1263       C  0.37615418  0.81335105  0.90430208    -0.23500
H1264       H  0.34469686  0.84801714  0.94367108     0.15400
H1265       H  0.38458457  0.93347043  0.87531151     0.15500
C1266       C  0.36234786  0.96810089  0.91842991    -0.23500
H1267       H  0.39126431  0.80463553  0.92181627     0.05700
H1268       H  0.39150450  0.80551356  0.88680498     0.08900
H1269       H  0.35095914  0.79877235  0.90400005     0.08900
H1270       H  0.37618344  0.97454013  0.93702994     0.08900
H1271       H  0.33528790  0.97819833  0.91960031     0.08900
H1272       H  0.37539667  0.98287918  0.90223842     0.05700
C1273       C  0.14456432  0.65793359  0.61107572    -0.20100
C1274       C  0.14299340  0.62021839  0.61342557    -0.06700
C1275       C  0.12685809  0.60025082  0.59303250     0.14200
C1276       C  0.10887948  0.61852340  0.57307420    -0.20200
C1277       C  0.10960170  0.65618279  0.57130901    -0.06700
C1278       C  0.12919478  0.67598648  0.58985325     0.14100
C1279       C  0.13411383  0.71610308  0.58734674    -0.23500
H1280       H  0.15684555  0.67375682  0.62637089     0.15400
H1281       H  0.09476008  0.60320365  0.55837965     0.15500
C1282       C  0.12899990  0.55987771  0.59113823    -0.23500
H1283       H  0.15177842  0.72678894  0.60280115     0.05700
H1284       H  0.10899471  0.73042292  0.58925837     0.08900
H1285       H  0.14574592  0.72241884  0.56792318     0.08900
H1286       H  0.10268016  0.54804450  0.59351687     0.08900
H1287       H  0.14684535  0.54802331  0.60592061     0.08900
H1288       H  0.13927900  0.55223287  0.57151446     0.05700
C1289       C  0.45744071  0.83365995  0.59737205    -0.20100
C1290       C  0.43588914  0.81273326  0.61378575    -0.06700
C1291       C  0.43264194  0.77527063  0.60802111     0.14200
C1292       C  0.44971343  0.76096702  0.58600362    -0.20200
C1293       C  0.47340649  0.78130453  0.57143248    -0.06700
C1294       C  0.47764407  0.81810247  0.57736868     0.14100
C1295       C  0.00593173  0.83998548  0.56452988    -0.23500
H1296       H  0.46005154  0.86218993  0.60106872     0.15400
H1297       H  0.44654732  0.73276469  0.58116705     0.15500
C1298       C  0.41438474  0.74876386  0.62577809    -0.23500
H1299       H  0.00729218  0.86758671  0.57278883     0.05700
H1300       H  0.00081632  0.84248299  0.54317907     0.08900
H1301       H  0.03168393  0.82707101  0.56750306     0.08900
H1302       H  0.38581578  0.75061967  0.62331726     0.08900
H1303       H  0.42215926  0.75306701  0.64658100     0.08900
H1304       H  0.42140017  0.72058397  0.62086656     0.05700
C1305       C  0.08527080  0.80761455  0.91567641    -0.20100
C1306       C  0.10462082  0.78125766  0.92880077    -0.06700
C1307       C  0.13950695  0.77543421  0.92108265     0.14200
C1308       C  0.15385072  0.79659977  0.90097695    -0.20200
C1309       C  0.13312295  0.81949854  0.88524274    -0.06700
C1310       C  0.09757573  0.82421844  0.89274037     0.14100
C1311       C  0.07065352  0.84304105  0.87598351    -0.23500
H1312       H  0.05877095  0.81259388  0.92201209     0.15400
H1313       H  0.18120003  0.79314857  0.89662064     0.15500
C1314       C  0.16205579  0.74628796  0.93271085    -0.23500
H1315       H  0.04378024  0.83566386  0.88193433     0.05700
H1316       H  0.07318802  0.83496482  0.85505542     0.08900
H1317       H  0.07252906  0.87255085  0.87844370     0.08900
H1318       H  0.14817049  0.72944802  0.94725195     0.08900
H1319       H  0.18507486  0.75852849  0.94243853     0.08900
H1320       H  0.17118745  0.72819166  0.91677565     0.05700
C1321       C  0.42117258  0.63508043  0.90366685    -0.20100
C1322       C  0.44202251  0.61867242  0.88432692    -0.06700
C1323       C  0.47887721  0.62001984  0.88726085     0.14200
C1324       C  0.49316796  0.63521420  0.91000307    -0.20200
C1325       C  0.47242476  0.65270530  0.92861031    -0.06700
C1326       C  0.43595040  0.65351635  0.92507778     0.14100
C1327       C  0.41276783  0.67568860  0.94264892    -0.23500
H1328       H  0.39314444  0.63499320  0.90134268     0.15400
H1329       H  0.02118758  0.63551240  0.91255864     0.15500
C1330       C  0.50392678  0.60918070  0.86576760    -0.23500
H1331       H  0.38527343  0.67510058  0.93589287     0.05700
H1332       H  0.42159314  0.70409640  0.94249482     0.08900
H1333       H  0.41329072  0.66547065  0.96307859     0.08900
H1334       H  0.49551929  0.62060209  0.84661135     0.08900
H1335       H  0.50623166  0.57958968  0.86450812     0.08900
H1336       H  0.03058118  0.61945164  0.86963322     0.05700
C1337       C  0.35396834  0.57177118  0.59979850    -0.20100
C1338       C  0.37345766  0.55003013  0.61708685    -0.06700
C1339       C  0.38052264  0.51392847  0.60946941     0.14200
C1340       C  0.37143521  0.50250867  0.58416051    -0.20200
C1341       C  0.34853134  0.52267847  0.56861668    -0.06700
C1342       C  0.33944380  0.55780152  0.57664702     0.14100
C1343       C  0.31353003  0.58078551  0.56202960    -0.23500
H1344       H  0.34854927  0.59949732  0.60479288     0.15400
H1345       H  0.37765637  0.97526312  0.57821145     0.15500
C1346       C  0.39313686  0.48505863  0.62810886    -0.23500
H1347       H  0.29182545  0.58802368  0.57541257     0.05700
H1348       H  0.30204371  0.56717493  0.54470318     0.08900
H1349       H  0.32641788  0.60581469  0.55525884     0.08900
H1350       H  0.39170357  0.49307630  0.64904199     0.08900
H1351       H  0.42011898  0.47707466  0.62298696     0.08900
H1352       H  0.37600840  0.96103892  0.62641145     0.05700
C1353       C  0.20511015  0.86899014  0.56828929    -0.20100
C1354       C  0.20842484  0.90645137  0.56593302    -0.06700
C1355       C  0.19497445  0.92873583  0.58596701     0.14200
C1356       C  0.18404396  0.91320315  0.60952705    -0.20200
C1357       C  0.18359460  0.87569859  0.61304337    -0.06700
C1358       C  0.19170010  0.85330676  0.59134250     0.14100
C1359       C  0.18504490  0.81336583  0.59184480    -0.23500
H1360       H  0.21420664  0.85194881  0.55243376     0.15400
H1361       H  0.17659641  0.93082736  0.62554033     0.15500
C1362       C  0.19308844  0.96907923  0.58344996    -0.23500
H1363       H  0.18963363  0.80098754  0.57226918     0.05700
H1364       H  0.15752360  0.80820682  0.59728000     0.08900
H1365       H  0.20245756  0.79967963  0.60598639     0.08900
H1366       H  0.20127470  0.97875040  0.56378968     0.08900
H1367       H  0.20991061  0.98181868  0.59858793     0.08900
H1368       H  0.16582793  0.97802532  0.58651100     0.05700
C1369       C  0.18208834  0.52649820  0.07291537    -0.20100
C1370       C  0.21828816  0.52218955  0.07119337    -0.06700
C1371       C  0.23986940  0.53839690  0.09036628     0.14200
C1372       C  0.22463042  0.55660481  0.11152493    -0.20200
C1373       C  0.18832519  0.56049538  0.11367728    -0.06700
C1374       C  0.16688365  0.54635449  0.09340996     0.14100
C1375       C  0.12815588  0.55252072  0.09220894    -0.23500
H1376       H  0.16557355  0.01469593  0.05789640     0.15400
H1377       H  0.24135892  0.56696737  0.12693575     0.15500
C1378       C  0.27905170  0.53703332  0.08850188    -0.23500
H1379       H  0.12118811  0.56421533  0.07280871     0.05700
H1380       H  0.11885509  0.57162330  0.10735881     0.08900
H1381       H  0.11431281  0.52653621  0.09455538     0.08900
H1382       H  0.28752683  0.54798214  0.06924358     0.08900
H1383       H  0.28854471  0.50907142  0.09059011     0.08900
H1384       H  0.29166902  0.55321138  0.10421395     0.05700
C1385       C  0.14954718  0.64331291  0.40100395    -0.20100
C1386       C  0.12842302  0.62183663  0.38456678    -0.06700
C1387       C  0.09374013  0.61461155  0.39298477     0.14200
C1388       C  0.08345701  0.62445186  0.41838545    -0.20200
C1389       C  0.10297364  0.64905749  0.43313044    -0.06700
C1390       C  0.13630532  0.65917075  0.42405049     0.14100
C1391       C  0.15699085  0.68837129  0.43746487    -0.23500
H1392       H  0.17601991  0.64931556  0.39532858     0.15400
H1393       H  0.05732013  0.61792716  0.42486110     0.15500
C1394       C  0.06493820  0.60203315  0.37487795    -0.23500
H1395       H  0.18138591  0.69446994  0.42668217     0.05700
H1396       H  0.16433365  0.68029788  0.45766688     0.08900
H1397       H  0.14133093  0.71342169  0.43831053     0.08900
H1398       H  0.05779029  0.57385231  0.37954571     0.08900
H1399       H  0.07155877  0.60476481  0.35379111     0.08900
H1400       H  0.04154450  0.61917412  0.37763539     0.05700
C1401       C  0.33340217  0.52731571  0.40956611    -0.20100
C1402       C  0.35556463  0.51529725  0.42967426    -0.06700
C1403       C  0.39188473  0.52039138  0.42689301     0.14200
C1404       C  0.40460820  0.53941881  0.40499195    -0.20200
C1405       C  0.38235617  0.55124324  0.38472045    -0.06700
C1406       C  0.34622435  0.54361589  0.38672591     0.14100
C1407       C  0.32108943  0.54940824  0.36422015    -0.23500
H1408       H  0.30566966  0.52253024  0.41134080     0.15400
H1409       H  0.43239060  0.54381369  0.40324262     0.15500
C1410       C  0.41803782  0.50468903  0.44577535    -0.23500
H1411       H  0.29567442  0.53613395  0.36791602     0.05700
H1412       H  0.33181678  0.53770002  0.34585059     0.08900
H1413       H  0.31550146  0.57832214  0.36144490     0.08900
H1414       H  0.40590740  0.98832913  0.46146752     0.08900
H1415       H  0.43321439  0.52666025  0.45510523     0.08900
H1416       H  0.43616158  0.48688089  0.43486141     0.05700
C1417       C  0.12138761  0.82155305  0.09661918    -0.20100
C1418       C  0.13731522  0.79810955  0.11475135    -0.06700
C1419       C  0.14020166  0.76100457  0.10811437     0.14200
C1420       C  0.12818341  0.74918642  0.08357425    -0.20200
C1421       C  0.10994163  0.77211619  0.06665530    -0.06700
C1422       C  0.10631540  0.80874712  0.07326263     0.14100
C1423       C  0.08462166  0.83382149  0.05670495    -0.23500
H1424       H  0.11916800  0.84985533  0.10131101     0.15400
H1425       H  0.12994314  0.72090953  0.07855734     0.15500
C1426       C  0.15190508  0.73253978  0.12742613    -0.23500
H1427       H  0.08313527  0.86110817  0.06549001     0.05700
H1428       H  0.05770389  0.82322375  0.05500316     0.08900
H1429       H  0.09598728  0.83654757  0.03680016     0.08900
H1430       H  0.13980682  0.73709217  0.14695656     0.08900
H1431       H  0.18062404  0.73197186  0.12906159     0.08900
H1432       H  0.14395335  0.70522259  0.12094673     0.05700
C1433       C  0.43489399  0.65604903  0.10470546    -0.20100
C1434       C  0.44302500  0.62053378  0.11223206    -0.06700
C1435       C  0.46222480  0.59894561  0.09431543     0.14200
C1436       C  0.47847875  0.61527187  0.07272356    -0.20200
C1437       C  0.47201345  0.65129969  0.06638501    -0.06700
C1438       C  0.44758851  0.67089495  0.08131064     0.14100
C1439       C  0.43543705  0.70771993  0.07288703    -0.23500
H1440       H  0.41965204  0.67310964  0.11748504     0.15400
H1441       H  0.99580410  0.59959977  0.06045733     0.15500
C1442       C  0.46484343  0.55862804  0.09645189    -0.23500
H1443       H  0.41524204  0.71851518  0.08634597     0.05700
H1444       H  0.42396165  0.70605620  0.05286779     0.08900
H1445       H  0.45725894  0.72713091  0.07261757     0.08900
H1446       H  0.44735449  0.54738104  0.11166506     0.08900
H1447       H  0.49213593  0.55071714  0.10069911     0.08900
H1448       H  0.95677187  0.54628432  0.07751984     0.05700
C1449       C  0.21178867  0.91858062  0.40800381    -0.20100
C1450       C  0.22217955  0.89614179  0.42869214    -0.06700
C1451       C  0.21599034  0.85879335  0.42697836     0.14200
C1452       C  0.19867595  0.84497328  0.40482116    -0.20200
C1453       C  0.18862339  0.86734490  0.38388712    -0.06700
C1454       C  0.19584624  0.90470896  0.38536984     0.14100
C1455       C  0.18930724  0.92991152  0.36260630    -0.23500
H1456       H  0.21739324  0.94709238  0.40924961     0.15400
H1457       H  0.19407720  0.81630469  0.40334249     0.15500
C1458       C  0.22939527  0.83324199  0.44763735    -0.23500
H1459       H  0.20019814  0.95708304  0.36638406     0.05700
H1460       H  0.16103956  0.93339255  0.35922989     0.08900
H1461       H  0.20184768  0.91931901  0.34453657     0.08900
H1462       H  0.21683703  0.83859658  0.46682864     0.08900
H1463       H  0.25799454  0.83640213  0.44971742     0.08900
H1464       H  0.22397265  0.80481867  0.44237014     0.05700
C1465       C  0.37134964  0.84416569  0.09470968    -0.20100
C1466       C  0.38188690  0.86706818  0.11524079    -0.06700
C1467       C  0.37267032  0.90396501  0.11403776     0.14200
C1468       C  0.35532787  0.91713511  0.09175478    -0.20200
C1469       C  0.34484095  0.89432999  0.07125027    -0.06700
C1470       C  0.35226703  0.85714959  0.07303656     0.14100
C1471       C  0.33837564  0.83077394  0.05310177    -0.23500
H1472       H  0.37720432  0.81573121  0.09606143     0.15400
H1473       H  0.34875856  0.94543763  0.09067085     0.15500
C1474       C  0.37852302  0.92929698  0.13684232    -0.23500
H1475       H  0.34457834  0.80261352  0.05861735     0.05700
H1476       H  0.34988484  0.83570493  0.03349944     0.08900
H1477       H  0.30964264  0.83330482  0.05177883     0.08900
H1478       H  0.40661277  0.93466038  0.13964282     0.08900
H1479       H  0.36738295  0.91766870  0.15508951     0.08900
H1480       H  0.36576271  0.95570140  0.13353031     0.05700
C1481       C  0.42719528  0.79045794  0.40275682    -0.20100
C1482       C  0.45041088  0.80666790  0.38491709    -0.06700
C1483       C  0.48587205  0.81079092  0.39250327     0.14200
C1484       C  0.49623239  0.79973376  0.41759980    -0.20200
C1485       C  0.47407594  0.77948067  0.43365294    -0.06700
C1486       C  0.43895131  0.77492014  0.42623203     0.14100
C1487       C  0.41366538  0.75226837  0.44163399    -0.23500
H1488       H  0.39994184  0.78771973  0.39765286     0.15400
H1489       H  0.02441596  0.80035791  0.42224229     0.15500
C1490       C  0.51433606  0.82187594  0.37367201    -0.23500
H1491       H  0.40357819  0.73037061  0.42888258     0.05700
H1492       H  0.39150841  0.76918781  0.44816379     0.08900
H1493       H  0.42545833  0.73957703  0.45920161     0.08900
H1494       H  0.51592368  0.85153586  0.37225083     0.08900
H1495       H  0.51015367  0.80962136  0.35400602     0.08900
H1496       H  0.04080106  0.80972261  0.37926089     0.05700
C1497       C  0.93807089  0.31549285  0.35790057     0.03300
C1498       C  0.95052194  0.34599145  0.34483494    -0.12900
C1499       C  0.94156753  0.35264859  0.31864174     0.00800
C1500       C  0.91612136  0.33152491  0.30650400    -0.11400
C1501       C  0.90095212  0.30267842  0.31999737     0.03300
C1502       C  0.91296884  0.29389854  0.34528351    -0.10800
H1503       H  0.96746843  0.36457403  0.35494554     0.08900
H1504       H  0.90829842  0.33730353  0.28647656     0.06400
H1505       H  0.90271527  0.27045153  0.35516626     0.06300
C1506       C  0.89851150  0.35120226  0.13907080     0.03300
C1507       C  0.92883846  0.36644443  0.14993088    -0.12900
C1508       C  0.93890793  0.35807551  0.17574385     0.00800
C1509       C  0.92037875  0.33202804  0.18982067    -0.11400
C1510       C  0.89223637  0.31402379  0.17828293     0.03300
C1511       C  0.88133541  0.32368950  0.15289442    -0.10800
H1512       H  0.94275095  0.38705757  0.13923605     0.08900
H1513       H  0.92723274  0.32654285  0.21013048     0.06400
H1514       H  0.85773940  0.31204423  0.14487653     0.06300
C1515       C  0.67531133  0.35055543  0.35931736     0.03300
C1516       C  0.69548881  0.32434231  0.34656706    -0.12900
C1517       C  0.68780545  0.31403346  0.32069378     0.00800
C1518       C  0.65991798  0.33030932  0.30746638    -0.11400
C1519       C  0.63823823  0.35480114  0.32060275     0.03300
C1520       C  0.64519136  0.36359376  0.34690931    -0.10800
H1521       H  0.71877268  0.31405934  0.35599112     0.08900
H1522       H  0.65541412  0.32435832  0.28685913     0.06400
H1523       H  0.62895453  0.38300730  0.35692820     0.06300
C1524       C  0.93367810  0.10820919  0.13940851     0.03300
C1525       C  0.90370135  0.12141010  0.15193911    -0.12900
C1526       C  0.89686931  0.11375614  0.17845887     0.00800
C1527       C  0.91811151  0.08920578  0.19183395    -0.11400
C1528       C  0.94758919  0.07463233  0.17945011     0.03300
C1529       C  0.95625832  0.08601261  0.15396629    -0.10800
H1530       H  0.88565949  0.13814197  0.14114484     0.08900
H1531       H  0.91213637  0.08207415  0.21198809     0.06400
H1532       H  0.98048322  0.07725057  0.14535249     0.06300
C1533       C  0.95978816  0.38097961  0.30403264     0.42600
N1534       N  0.49688121  0.42168212  0.29454897     0.01500
C1535       C  0.50008129  0.02892974  0.18330426    -0.06400
H1536       H  0.51009348  0.39278176  0.16270030     0.07000
C1537       C  0.62649907  0.39540125  0.21821358    -0.06700
Co1538     Co  0.97671231  0.46183779  0.24614356     0.74200
N1539       N  0.50320926  0.42328007  0.19856098    -0.25900
Co1540     Co  0.54304314  0.46148371  0.20008826     0.74100
C1541       C  0.61643831  0.37828768  0.19354911     0.42700
N1542       N  0.59916576  0.41952772  0.27957126     0.01100
N1543       N  0.58117549  0.42153686  0.20186928     0.01200
N1544       N  0.95752349  0.02812339  0.21396542    -0.46700
H1545       H  0.92730715  0.39289601  0.26687858     0.07000
N1546       N  0.97869776  0.42306761  0.21672110     0.01500
N1547       N  0.58250918  0.49994870  0.20283948     0.01300
C1548       C  0.61854945  0.04243341  0.19472977     0.42900
N1549       N  0.57458739  0.41986431  0.29764123    -0.25400
C1550       C  0.95123983  0.02471403  0.28038555    -0.06300
N1551       N  0.48910613  0.39728349  0.31246253    -0.46500
N1552       N  0.59056537  0.02466096  0.18521323    -0.46700
C1553       C  0.95944493  0.03894186  0.30627307     0.42600
N1554       N  0.98006646  0.50169709  0.21760021     0.01500
N1555       N  0.57600188  0.49758361  0.29902052    -0.25400
N1556       N  0.97430574  0.42252440  0.27499511    -0.25900
N1557       N  0.60107663  0.49767835  0.28131883     0.01100
H1558       H  0.56896441  0.02678694  0.33542493     0.07000
H1559       H  0.65021778  0.03072280  0.23217278     0.07100
N1560       N  0.50509165  0.50143998  0.19988168    -0.25900
N1561       N  0.60339760  0.42164118  0.22165435    -0.25500
N1562       N  0.49743621  0.49918955  0.29592752     0.01500
C1563       C  0.96350629  0.38132320  0.18999600     0.42900
C1564       C  0.58136341  0.39370145  0.31511356    -0.06800
N1565       N  0.60439514  0.49963455  0.22287450    -0.25500
H1566       H  0.64834482  0.39025954  0.23107916     0.07100
N1567       N  0.95449101  0.39859081  0.21225236    -0.46700
H1568       H  0.56678132  0.38848001  0.33288074     0.07000
C1569       C  0.61737885  0.03692227  0.30964211     0.42700
C1570       C  0.94997520  0.39740326  0.27907063    -0.06300
Co1571     Co  0.53619270  0.45966930  0.29732002     0.73800
N1572       N  0.62273623  0.39426936  0.28365491    -0.46500
C1573       C  0.96848914  0.04669604  0.19276679     0.43000
N1574       N  0.48810224  0.02158719  0.31517422    -0.46500
Co1575     Co  0.60249649  0.45971541  0.25136469     0.73900
C1576       C  0.62792416  0.02577310  0.21967059    -0.06800
C1577       C  0.49558360  0.39803999  0.18049510    -0.06300
N1578       N  0.97568378  0.50001250  0.27584496    -0.25900
N1579       N  0.58823153  0.39613393  0.18428895    -0.46600
H1580       H  0.51609911  0.03493610  0.16641203     0.07000
C1581       C  0.58401135  0.02171545  0.31785761    -0.06800
Cl1582     Cl  0.53959878  0.46073112  0.24874761    -0.49800
C1583       C  0.61313612  0.37637413  0.30548966     0.42800
H1584       H  0.92851589  0.02932067  0.26825868     0.07000
N1585       N  0.62628006  0.02081852  0.28689095    -0.46500
C1586       C  0.64790338  0.31257949  0.14097982     0.03300
C1587       C  0.62687110  0.33779444  0.15444216    -0.12900
C1588       C  0.63625999  0.34995106  0.17966631     0.00800
C1589       C  0.66543440  0.33490275  0.19202878    -0.11400
C1590       C  0.68645713  0.31015637  0.17898015     0.03300
C1591       C  0.67883313  0.30093819  0.15297310    -0.10800
H1592       H  0.60316562  0.34773240  0.14550108     0.08900
H1593       H  0.67176257  0.34207230  0.21204028     0.06400
H1594       H  0.69699994  0.28442363  0.14223849     0.06300
C1595       C  0.89774392  0.06752197  0.36049163     0.03300
C1596       C  0.88219941  0.09764746  0.34844918    -0.12900
C1597       C  0.89016730  0.10646982  0.32233797     0.00800
C1598       C  0.91691126  0.08820462  0.30946420    -0.11400
C1599       C  0.93527067  0.06068096  0.32206185     0.03300
C1600       C  0.92548730  0.05013137  0.34752413    -0.10800
H1601       H  0.86189657  0.11230026  0.35850840     0.08900
H1602       H  0.92257807  0.09454533  0.28909591     0.06400
H1603       H  0.93741676  0.02657094  0.35622160     0.06300
C1604       C  0.64287297  0.10792479  0.35897485     0.03300
C1605       C  0.63102869  0.07505167  0.34860684    -0.12900
C1606       C  0.63771925  0.06559224  0.32250608     0.00800
C1607       C  0.66245231  0.08499697  0.30823395    -0.11400
C1608       C  0.67857399  0.11529631  0.31923293     0.03300
C1609       C  0.66744967  0.12764539  0.34405756    -0.10800
H1610       H  0.61499994  0.05746556  0.36035149     0.08900
H1611       H  0.66857288  0.07678313  0.28835798     0.06400
H1612       H  0.67772047  0.15280206  0.35131969     0.06300
C1613       C  0.67428203  0.07575090  0.13867576     0.03300
C1614       C  0.69102639  0.10512085  0.15081402    -0.12900
C1615       C  0.68494557  0.11307271  0.17738213     0.00800
C1616       C  0.65999654  0.09340460  0.19133558    -0.11400
C1617       C  0.64145255  0.06567503  0.17906506     0.03300
C1618       C  0.64898117  0.05664588  0.15292705    -0.10800
H1619       H  0.71127322  0.11947466  0.14038179     0.08900
H1620       H  0.65596653  0.09879250  0.21207182     0.06400
H1621       H  0.63725572  0.03280104  0.14448398     0.06300
C1622       C  0.87079280  0.28998446  0.19451786     0.42600
N1623       N  0.83001420  0.25286857  0.20394034     0.01500
C1624       C  0.72711928  0.25655520  0.31622253    -0.06400
H1625       H  0.85945706  0.23391194  0.33389613     0.07000
C1626       C  0.85131023  0.11916162  0.28154058    -0.06700
Co1627     Co  0.79203958  0.27559884  0.25244415     0.74200
N1628       N  0.82797417  0.24584107  0.29981113    -0.25900
Co1629     Co  0.78885350  0.20729233  0.29866827     0.74100
C1630       C  0.86668584  0.12931908  0.30671670     0.42700
N1631       N  0.82723503  0.14647003  0.21867045     0.01100
N1632       N  0.82559110  0.16603400  0.29737407     0.01200
N1633       N  0.72934796  0.29958020  0.28485452    -0.46700
H1634       H  0.86079236  0.32321978  0.23183938     0.07000
N1635       N  0.82917667  0.27159974  0.28203151     0.01500
N1636       N  0.74978788  0.16864236  0.29611183     0.01300
C1637       C  0.70662280  0.13391250  0.30457153     0.42900
N1638       N  0.82754184  0.17276428  0.20126325    -0.25400
C1639       C  0.73111921  0.30339509  0.21791511    -0.06300
N1640       N  0.85308247  0.26107823  0.18552807    -0.46500
N1641       N  0.72452090  0.16281974  0.31332224    -0.46700
C1642       C  0.71548800  0.29282388  0.19290530     0.42600
N1643       N  0.75313768  0.27441019  0.28090441     0.01500
N1644       N  0.75223537  0.17462428  0.20041503    -0.25400
N1645       N  0.83053802  0.27571892  0.22379582    -0.25900
N1646       N  0.75093057  0.14902076  0.21834336     0.01100
H1647       H  0.72234836  0.18452012  0.16507197     0.07000
H1648       H  0.71804890  0.09903523  0.26797998     0.07100
N1649       N  0.75236281  0.24887496  0.29890409    -0.25900
N1650       N  0.82596078  0.14317356  0.27750331    -0.25500
N1651       N  0.75480173  0.25474928  0.20315801     0.01500
C1652       C  0.87223008  0.28267820  0.30754984     0.42900
C1653       C  0.85268011  0.16668459  0.18374171    -0.06800
N1654       N  0.74999236  0.14497411  0.27676824    -0.25500
H1655       H  0.85684179  0.09618115  0.26920107     0.07100
N1656       N  0.85512880  0.29423952  0.28598440    -0.46700
H1657       H  0.85848981  0.18349322  0.16697136     0.07000
C1658       C  0.70904997  0.13655414  0.19192178     0.42700
C1659       C  0.85580609  0.29980431  0.21979559    -0.06300
Co1660     Co  0.79114108  0.21372572  0.20170317     0.73800
N1661       N  0.85148011  0.12188302  0.21388960    -0.46500
C1662       C  0.71156893  0.28985270  0.30654770     0.43000
N1663       N  0.73140366  0.26244358  0.18490588    -0.46500
Co1664     Co  0.78859682  0.14511787  0.24778801     0.73900
C1665       C  0.72363529  0.12195749  0.28035522    -0.06800
C1666       C  0.85416961  0.25058974  0.31694597    -0.06300
N1667       N  0.75527965  0.27832244  0.22253836    -0.25900
N1668       N  0.84902341  0.15817796  0.31568782    -0.46600
H1669       H  0.72105529  0.24128812  0.33371770     0.07000
C1670       C  0.72699524  0.16875430  0.18259881    -0.06800
Cl1671     Cl  0.79014889  0.21040650  0.25013924    -0.49800
C1672       C  0.86841081  0.13292843  0.19201429     0.42800
H1673       H  0.72635299  0.32677480  0.23001833     0.07000
N1674       N  0.72565663  0.12566711  0.21391027    -0.46500
N1675       N  0.78073726  0.46278627  0.53835558    -0.36400
N1676       N  0.82869334  0.49259599  0.49952677    -0.57000
N1677       N  0.78931253  0.45538471  0.45920559    -0.36400
N1678       N  0.74441419  0.42185999  0.49820420    -0.57000
C1679       C  0.80575167  0.47667248  0.55412779     0.27100
C1680       C  0.76188443  0.43953038  0.55305189     0.27100
C1681       C  0.81820211  0.46555128  0.44601475     0.27100
C1682       C  0.77447674  0.42837130  0.44535469     0.27100
C1683       C  0.83802448  0.01251926  0.52057284     0.35800
C1684       C  0.84171472  0.00927958  0.47808464     0.35800
C1685       C  0.72212283  0.41710133  0.51835467     0.35800
C1686       C  0.72671873  0.41360985  0.47610009     0.35800
C1687       C  0.80215975  0.46232989  0.57924981    -0.21700
C1688       C  0.77512204  0.43849827  0.57838175    -0.21700
C1689       C  0.82194766  0.44457912  0.42365566    -0.21700
C1690       C  0.79432510  0.42106338  0.42324337    -0.21700
C1691       C  0.85789974  0.04160457  0.51254017    -0.22800
C1692       C  0.85962964  0.03995269  0.48554337    -0.22800
C1693       C  0.69014885  0.40541378  0.50913639    -0.22800
C1694       C  0.69296132  0.40351096  0.48220006    -0.22800
C1695       C  0.83008087  0.00368954  0.54694554    -0.18100
C1696       C  0.73121110  0.42153313  0.54496433    -0.18100
C1697       C  0.74178802  0.41266710  0.45086964    -0.18100
C1698       C  0.83907217  0.99570819  0.45216731    -0.18100
H1699       H  0.81666013  0.46851622  0.59687077     0.14800
H1700       H  0.76568909  0.42296710  0.59488229     0.14800
H1701       H  0.84209262  0.44663710  0.40888321     0.14800
H1702       H  0.78898294  0.40137893  0.40808471     0.14800
H1703       H  0.86976819  0.06201061  0.52477556     0.13100
H1704       H  0.87308044  0.05880744  0.47296974     0.13100
H1705       H  0.66729954  0.39895685  0.52060707     0.13100
H1706       H  0.67276341  0.39499777  0.46870884     0.13100
H1707       H  0.77534005  0.47067237  0.51921846     0.26300
H1708       H  0.77858747  0.46834064  0.47537997     0.26300
N1709       N  0.54171422  0.21120787  0.03780552    -0.36400
N1710       N  0.58083106  0.25069825  0.99733267    -0.57000
N1711       N  0.53993151  0.21439291  0.95717238    -0.36400
N1712       N  0.99793849  0.17813627  0.99779217    -0.57000
C1713       C  0.56085939  0.23328429  0.05321087     0.27100
C1714       C  0.51816984  0.19457630  0.05340732     0.27100
C1715       C  0.55708985  0.23857700  0.94200913     0.27100
C1716       C  0.51368942  0.20043630  0.94256586     0.27100
C1717       C  0.59898019  0.26138939  0.01874577     0.35800
C1718       C  0.59785719  0.26351131  0.97606402     0.35800
C1719       C  0.98657117  0.15943015  0.01886490     0.35800
C1720       C  0.98602144  0.16075921  0.97628906     0.35800
C1721       C  0.54951153  0.23030674  0.07903399    -0.21700
C1722       C  0.52327318  0.20550755  0.07923690    -0.21700
C1723       C  0.54188647  0.23891462  0.91714678    -0.21700
C1724       C  0.51429131  0.21564548  0.91772074    -0.21700
C1725       C  0.62773808  0.28117131  0.01108669    -0.22800
C1726       C  0.62666767  0.28313715  0.98416065    -0.22800
C1727       C  0.96666735  0.13043014  0.01067819    -0.22800
C1728       C  0.96698246  0.13082242  0.98371779    -0.22800
C1729       C  0.58920587  0.25517064  0.04518675    -0.18100
C1730       C  0.99290300  0.16893401  0.04536891    -0.18100
C1731       C  0.99063251  0.17246876  0.95010337    -0.18100
C1732       C  0.58665886  0.25950775  0.94958272    -0.18100
H1733       H  0.55923044  0.24427992  0.09620643     0.14800
H1734       H  0.50961743  0.19670523  0.09665332     0.10800
H1735       H  0.54977279  0.25370099  0.89989368     0.14800
H1736       H  0.49709424  0.20995763  0.90135582     0.14800
H1737       H  0.64700287  0.29374134  0.02362562     0.13100
H1738       H  0.64490205  0.29784575  0.97211101     0.13100
H1739       H  0.95341357  0.11080738  0.02271379     0.13100
H1740       H  0.95404482  0.11161518  0.97105256     0.13100
H1741       H  0.54540441  0.20685760  0.01799466     0.26300
H1742       H  0.54683510  0.20622944  0.97588042     0.26300
N1743       N  0.53906414  0.21517894  0.46263045    -0.36400
N1744       N  0.49936263  0.25371604  0.50303122    -0.57000
N1745       N  0.54221265  0.21950325  0.54302596    -0.36400
N1746       N  0.57927314  0.17803906  0.50231947    -0.57000
C1747       C  0.51350831  0.23011403  0.44797113     0.27100
C1748       C  0.55550254  0.19073462  0.44728247     0.27100
C1749       C  0.51744927  0.23485430  0.55837531     0.27100
C1750       C  0.55939015  0.19503600  0.55790546     0.27100
C1751       C  0.98577143  0.26988485  0.48155493     0.35800
C1752       C  0.98636394  0.27109300  0.52414053     0.35800
C1753       C  0.59593973  0.16500648  0.48091870     0.35800
C1754       C  0.59780843  0.16748272  0.52354485     0.35800
C1755       C  0.51357958  0.21497403  0.42307293    -0.21700
C1756       C  0.54033808  0.19090373  0.42242322    -0.21700
C1757       C  0.51965710  0.22037669  0.58350498    -0.21700
C1758       C  0.54551257  0.19496338  0.58305516    -0.21700
C1759       C  0.96374509  0.29749151  0.48902541    -0.22800
C1760       C  0.96341960  0.29766527  0.51597395    -0.22800
C1761       C  0.62465279  0.14514508  0.48866086    -0.22800
C1762       C  0.62626502  0.14731657  0.51556698    -0.22800
C1763       C  0.99160715  0.25905249  0.45531808    -0.18100
C1764       C  0.58475949  0.16950523  0.45457303    -0.18100
C1765       C  0.58840183  0.17390672  0.55006943    -0.18100
C1766       C  0.99372050  0.26236414  0.55068293    -0.18100
H1767       H  0.49665962  0.22130791  0.40667060     0.14800
H1768       H  0.54775614  0.17610251  0.40506970     0.14800
H1769       H  0.50455796  0.22727837  0.60068332     0.14800
H1770       H  0.55363948  0.17875376  0.59963490     0.14800
H1771       H  0.94871155  0.31506102  0.47642421     0.13100
H1772       H  0.94796091  0.31543130  0.52808630     0.13100
H1773       H  0.64259282  0.13049586  0.47627058     0.13100
H1774       H  0.64591766  0.13488268  0.52780827     0.13100
H1775       H  0.54619747  0.22302855  0.48136287     0.26300
H1776       H  0.54838864  0.22660943  0.52393937     0.26300
N1777       N  0.77928308  0.45817547  0.96217440    -0.36400
N1778       N  0.81791694  0.41747981  0.00190714    -0.57000
N1779       N  0.77906381  0.45606278  0.04145698    -0.36400
N1780       N  0.73791201  0.49354149  0.00150943    -0.57000
C1781       C  0.79587641  0.43298295  0.94776268     0.27100
C1782       C  0.75331777  0.47160917  0.94706314     0.27100
C1783       C  0.79287818  0.42863888  0.05551953     0.27100
C1784       C  0.75206990  0.46928557  0.05542785     0.27100
C1785       C  0.83869390  0.41237981  0.98089838     0.35800
C1786       C  0.83721161  0.40971547  0.02336392     0.35800
C1787       C  0.72765043  0.01270386  0.98027429     0.35800
C1788       C  0.72875708  0.01273631  0.02294831     0.35800
C1789       C  0.78013756  0.42984887  0.92335969    -0.21700
C1790       C  0.75384272  0.45465100  0.92268344    -0.21700
C1791       C  0.77413463  0.42412396  0.07856019    -0.21700
C1792       C  0.74836143  0.44985441  0.07851872    -0.21700
C1793       C  0.87131662  0.40089738  0.98891429    -0.22800
C1794       C  0.87045650  0.39944106  0.01597567    -0.22800
C1795       C  0.71105457  0.04390957  0.98830752    -0.22800
C1796       C  0.71221950  0.04418303  0.01536081    -0.22800
C1797       C  0.82762201  0.41644114  0.95466311    -0.18100
C1798       C  0.73161598  0.00102034  0.95394593    -0.18100
C1799       C  0.73332572  0.00083794  0.04913661    -0.18100
C1800       C  0.82410340  0.41034052  0.04925366    -0.18100
H1801       H  0.78803490  0.41284779  0.90715078     0.14800
H1802       H  0.73821203  0.46018224  0.90551807     0.14800
H1803       H  0.77916064  0.40495237  0.09411249     0.14800
H1804       H  0.72966936  0.45449634  0.09405002     0.14800
H1805       H  0.89332703  0.39429202  0.97657846     0.13100
H1806       H  0.89166642  0.39142182  0.02871650     0.13100
H1807       H  0.69918394  0.06432837  0.97611175     0.13100
H1808       H  0.70158245  0.06489915  0.02793493     0.13100
H1809       H  0.78746800  0.46787563  0.98030070     0.26300
H1810       H  0.78941338  0.46742399  0.02451538     0.26300
C1811       C  0.89067265  0.36576992  0.85923690     0.03300
C1812       C  0.87108411  0.34086484  0.84458525    -0.12900
C1813       C  0.88120050  0.33134872  0.81898057     0.00800
C1814       C  0.91025381  0.34822620  0.80769143    -0.11400
C1815       C  0.92910228  0.37414779  0.82172363     0.03300
C1816       C  0.91963843  0.38219498  0.84760947    -0.10800
H1817       H  0.84800587  0.32897988  0.85314774     0.08900
H1818       H  0.91785565  0.34191066  0.78774002     0.06400
H1819       H  0.93462129  0.40155567  0.85879231     0.06300
C1820       C  0.92504167  0.10501136  0.85979069     0.03300
C1821       C  0.89950915  0.12591726  0.84696315    -0.12900
C1822       C  0.88946575  0.11783729  0.82109197     0.00800
C1823       C  0.90580332  0.08968904  0.80775495    -0.11400
C1824       C  0.93034835  0.06817658  0.82050535     0.03300
C1825       C  0.93745322  0.07392938  0.84719076    -0.10800
H1826       H  0.88970312  0.15019898  0.85608010     0.08900
H1827       H  0.90049452  0.08546387  0.78702441     0.06400
H1828       H  0.95542879  0.05633208  0.85724115     0.06300
C1829       C  0.68215623  0.06815845  0.85801385     0.03300
C1830       C  0.65144814  0.05698073  0.84525559    -0.12900
C1831       C  0.64433273  0.06677559  0.81922605     0.00800
C1832       C  0.66607846  0.09133075  0.80655276    -0.11400
C1833       C  0.69609920  0.10434044  0.81907541     0.03300
C1834       C  0.70517569  0.09080578  0.84401536    -0.10800
H1835       H  0.63274360  0.04036000  0.85542564     0.08900
H1836       H  0.65980995  0.10011161  0.78680264     0.06400
H1837       H  0.72985995  0.09838310  0.85256796     0.06300
C1838       C  0.64803727  0.33321933  0.85964764     0.03300
C1839       C  0.63597638  0.36497011  0.84755285    -0.12900
C1840       C  0.64157118  0.37098819  0.82063966     0.00800
C1841       C  0.66494473  0.34901965  0.80692871    -0.11400
C1842       C  0.68225884  0.32113977  0.81997230     0.03300
C1843       C  0.67262369  0.31234697  0.84571932    -0.10800
H1844       H  0.62004537  0.38368708  0.85824541     0.08900
H1845       H  0.66950720  0.35351032  0.78614753     0.06400
H1846       H  0.68284659  0.28770367  0.85392414     0.06300
C1847       C  0.65433506  0.10351682  0.63852740     0.03300
C1848       C  0.68313526  0.11777860  0.65213133    -0.12900
C1849       C  0.68811594  0.11034323  0.67889625     0.00800
C1850       C  0.66609269  0.08581872  0.69154776    -0.11400
C1851       C  0.63891090  0.06928287  0.67778367     0.03300
C1852       C  0.63274135  0.07862361  0.65150218    -0.10800
H1853       H  0.69962228  0.13746040  0.64261659     0.08900
H1854       H  0.66934112  0.08051833  0.71237803     0.06400
H1855       H  0.60942813  0.06871745  0.64194818     0.06300
C1856       C  0.88588309  0.06564736  0.64255403     0.03300
C1857       C  0.86608273  0.09126033  0.65637204    -0.12900
C1858       C  0.87815504  0.10591044  0.68023447     0.00800
C1859       C  0.90850600  0.09189459  0.69171378    -0.11400
C1860       C  0.92764344  0.06533494  0.67857134     0.03300
C1861       C  0.91794026  0.05518158  0.65313408    -0.10800
H1862       H  0.84129111  0.09981329  0.64854949     0.08900
H1863       H  0.91682759  0.10111118  0.71094289     0.06400
H1864       H  0.93479953  0.03771521  0.64192243     0.06300
C1865       C  0.86180199  0.30372985  0.80405698     0.42600
N1866       N  0.82654827  0.26068557  0.79517623     0.01500
C1867       C  0.82718953  0.15283734  0.68374170    -0.06400
H1868       H  0.81281044  0.28848288  0.66352714     0.07000
C1869       C  0.69684953  0.28091784  0.71781182    -0.06700
Co1870     Co  0.84897116  0.22067336  0.74682355     0.74200
N1871       N  0.82091508  0.25817570  0.69929902    -0.25900
Co1872     Co  0.78280862  0.21818909  0.70050451     0.74100
C1873       C  0.70697293  0.29836633  0.69321994     0.42700
N1874       N  0.72375270  0.25637539  0.77981306     0.01100
N1875       N  0.74317711  0.25622821  0.70210364     0.01200
N1876       N  0.87024708  0.15442932  0.71417071    -0.46700
H1877       H  0.89485410  0.29162529  0.76726984     0.07000
N1878       N  0.84535710  0.25941420  0.71751914     0.01500
N1879       N  0.74519314  0.17777164  0.70282835     0.01300
C1880       C  0.71135626  0.13320417  0.69472911     0.42900
N1881       N  0.74823231  0.25747188  0.79804129    -0.25400
C1882       C  0.87582679  0.15767261  0.78062534    -0.06300
N1883       N  0.83333968  0.28602705  0.81279082    -0.46500
N1884       N  0.73833913  0.15252038  0.68514603    -0.46700
C1885       C  0.86718937  0.14244070  0.80608643     0.42600
N1886       N  0.84733604  0.18056467  0.71795274     0.01500
N1887       N  0.75208517  0.17922678  0.79874955    -0.25400
N1888       N  0.84926588  0.26031538  0.77572554    -0.25900
N1889       N  0.72722228  0.17791878  0.78084687     0.01100
H1890       H  0.76350228  0.14660470  0.83282378     0.07000
H1891       H  0.67938336  0.14364989  0.73211766     0.07100
N1892       N  0.82207902  0.18015065  0.70036280    -0.25900
N1893       N  0.72061916  0.25525232  0.72162035    -0.25500
N1894       N  0.82965782  0.18279054  0.79652656     0.01500
C1895       C  0.85876539  0.30213037  0.69106504     0.42900
C1896       C  0.73969574  0.28296965  0.81559036    -0.06800
N1897       N  0.72341064  0.17698849  0.72279575    -0.25500
H1898       H  0.67458797  0.28562031  0.73030620     0.07100
N1899       N  0.86844939  0.28502760  0.71325752    -0.46700
H1900       H  0.75384879  0.28917321  0.83342921     0.07000
C1901       C  0.71652439  0.13308400  0.80617948     0.42700
C1902       C  0.87240814  0.28663085  0.77951385    -0.06300
Co1903     Co  0.78913094  0.22017646  0.79779340     0.73800
N1904       N  0.69857838  0.27999700  0.78378115    -0.46500
C1905       C  0.85903893  0.13563520  0.69299694     0.43000
N1906       N  0.83859277  0.15953261  0.81512718    -0.46500
Co1907     Co  0.72317610  0.21662012  0.75132135     0.73900
C1908       C  0.70136182  0.14958356  0.71959607    -0.06800
C1909       C  0.82746537  0.28388100  0.68139087    -0.06300
N1910       N  0.85145438  0.18260806  0.77648774    -0.25900
N1911       N  0.73582579  0.28141499  0.68445947    -0.46600
H1912       H  0.81070737  0.14638553  0.66715171     0.07000
C1913       C  0.74751414  0.15197349  0.81574885    -0.06800
Cl1914     Cl  0.78604585  0.21902309  0.74915115    -0.49800
C1915       C  0.70702002  0.29816492  0.80575629     0.42800
H1916       H  0.89820438  0.15276056  0.76826594     0.07000
N1917       N  0.70540294  0.15097869  0.78466440    -0.46500
C1918       C  0.92191051  0.32962474  0.63877224     0.03300
C1919       C  0.94279270  0.35404940  0.65320124    -0.12900
C1920       C  0.93381179  0.36426278  0.67886803     0.00800
C1921       C  0.90501717  0.34830265  0.69086612    -0.11400
C1922       C  0.88320612  0.32526664  0.67659538     0.03300
C1923       C  0.89001436  0.31885568  0.64991691    -0.10800
H1924       H  0.96750979  0.36313133  0.64552393     0.08900
H1925       H  0.90001146  0.35313902  0.71155256     0.06400
H1926       H  0.87190078  0.30283518  0.63877943     0.06300
C1927       C  0.67409916  0.36175479  0.63952860     0.03300
C1928       C  0.64602752  0.37757633  0.65284783    -0.12900
C1929       C  0.63961088  0.36965355  0.67921770     0.00800
C1930       C  0.65986834  0.34386152  0.69200857    -0.11400
C1931       C  0.68725864  0.32658062  0.67903334     0.03300
C1932       C  0.69512285  0.33654831  0.65298252    -0.10800
H1933       H  0.62973508  0.39703479  0.64283456     0.08900
H1934       H  0.65477515  0.33790483  0.71242866     0.06400
H1935       H  0.71799965  0.32552434  0.64363036     0.06300
C1936       C  0.95720530  0.38730314  0.69451662     0.42600
N1937       N  0.99701357  0.42566470  0.70388509     0.01500
C1938       C  0.60129624  0.42798901  0.81572829    -0.06400
H1939       H  0.96945130  0.44317001  0.83487596     0.07000
C1940       C  0.96981837  0.05741163  0.78009418    -0.06700
Co1941     Co  0.53581410  0.40469699  0.75262773     0.74200
N1942       N  0.99953823  0.43275585  0.79999041    -0.25900
Co1943     Co  0.53644429  0.47331475  0.79847108     0.74100
C1944       C  0.95375921  0.04578603  0.80464490     0.42700
N1945       N  0.99712720  0.03264816  0.71841062     0.01100
N1946       N  0.99769212  0.01226267  0.79645284     0.01200
N1947       N  0.60039624  0.38462553  0.78463630    -0.46700
H1948       H  0.96809264  0.35459399  0.73196785     0.07000
N1949       N  0.99887322  0.40683891  0.78232451     0.01500
N1950       N  0.57328259  0.01387854  0.79616575     0.01300
C1951       C  0.61456481  0.05039742  0.80538562     0.42900
N1952       N  0.99720111  0.00633918  0.70100624    -0.25400
C1953       C  0.59690056  0.37847068  0.71867987    -0.06300
N1954       N  0.97396302  0.41678426  0.68553094    -0.46500
N1955       N  0.59775681  0.02073355  0.81376644    -0.46700
C1956       C  0.61228516  0.38881972  0.69368553     0.42600
N1957       N  0.57508234  0.40819963  0.78094889     0.01500
N1958       N  0.57234934  0.00686120  0.70052927    -0.25400
N1959       N  0.99721076  0.40285522  0.72379706    -0.25900
N1960       N  0.57286467  0.03265062  0.71840383     0.01100
H1961       H  0.60234703  0.99790076  0.66520635     0.07000
H1962       H  0.60359218  0.08447437  0.76838844     0.07100
N1963       N  0.57504598  0.43392996  0.79880858    -0.25900
N1964       N  0.99687618  0.03531444  0.77673730    -0.25500
N1965       N  0.57237516  0.42644877  0.70343687     0.01500
C1966       C  0.95811898  0.39339377  0.80915647     0.42900
C1967       C  0.97223641  0.01244938  0.68327325    -0.06800
N1968       N  0.57281159  0.03737599  0.77677468    -0.25500
H1969       H  0.96330525  0.07998138  0.76762384     0.07100
N1970       N  0.97440850  0.38266846  0.78702255    -0.46700
H1971       H  0.96681422  0.99580560  0.66631471     0.07000
C1972       C  0.61397355  0.04647698  0.69193322     0.42700
C1973       C  0.97258638  0.37796625  0.71980359    -0.06300
Co1974     Co  0.53471855  0.46632917  0.70169238     0.73800
N1975       N  0.97304158  0.05722595  0.71351648    -0.46500
C1976       C  0.61847669  0.39550341  0.80599047     0.43000
N1977       N  0.59578439  0.41871386  0.68523889    -0.46500
Co1978     Co  0.53492633  0.03525341  0.74756327     0.73900
C1979       C  0.59822403  0.06148732  0.78073215    -0.06800
C1980       C  0.97471125  0.42662882  0.81785025    -0.06300
N1981       N  0.57239597  0.40316590  0.72296860    -0.25900
N1982       N  0.97288252  0.01815968  0.81398958    -0.46600
H1983       H  0.60704544  0.44384209  0.83303399     0.07000
C1984       C  0.59722265  0.01357530  0.68269627    -0.06800
Cl1985     Cl  0.53544448  0.46991245  0.75006270    -0.49800
C1986       C  0.95649671  0.04632697  0.69151855     0.42800
H1987       H  0.60177380  0.35524107  0.73090750     0.07000
N1988       N  0.59727460  0.05695964  0.71393035    -0.46500
C1989       C  0.67901005  0.01947548  0.89228103    -0.20100
C1990       C  0.69066741  0.05411508  0.88506659    -0.06700
C1991       C  0.71076045  0.07359117  0.90377351     0.14200
C1992       C  0.72415406  0.05561454  0.92589192    -0.20200
C1993       C  0.71345626  0.02064098  0.93226237    -0.06700
C1994       C  0.68796963  0.00391070  0.91642191     0.14100
C1995       C  0.67049171  0.46914328  0.92406602    -0.23500
H1996       H  0.66314009  0.00365697  0.87905291     0.15400
H1997       H  0.74237723  0.06940638  0.93869419     0.15500
C1998       C  0.71672266  0.11357721  0.90229695    -0.23500
H1999       H  0.64191849  0.47336766  0.92491365     0.05700
H2000       H  0.67898001  0.45926243  0.94362314     0.08900
H2001       H  0.67605360  0.44808354  0.90917736     0.08900
H2002       H  0.70026847  0.12684289  0.88726003     0.08900
H2003       H  0.74460817  0.11918463  0.89840289     0.08900
H2004       H  0.70950088  0.12605705  0.92137490     0.05700
C2005       C  0.85407146  0.36659560  0.92887303    -0.20100
C2006       C  0.84985468  0.40362970  0.93274617    -0.06700
C2007       C  0.86295245  0.42799209  0.91390428     0.14200
C2008       C  0.87665846  0.41465195  0.89041966    -0.20200
C2009       C  0.87919420  0.37754027  0.88572820    -0.06700
C2010       C  0.86962092  0.35322263  0.90591427     0.14100
C2011       C  0.87613761  0.31334426  0.90430001    -0.23500
H2012       H  0.84469985  0.34801595  0.94367438     0.15400
H2013       H  0.88451043  0.43345439  0.87527869     0.15500
C2014       C  0.86228300  0.46809811  0.91839262    -0.23500
H2015       H  0.89126473  0.30463765  0.92180811     0.05700
H2016       H  0.89147251  0.30550169  0.88679657     0.08900
H2017       H  0.85094463  0.29876123  0.90401372     0.08900
H2018       H  0.87612992  0.47455527  0.93698437     0.08900
H2019       H  0.83522078  0.47818644  0.91957034     0.08900
H2020       H  0.87531356  0.48287221  0.90219053     0.05700
C2021       C  0.64363523  0.15785600  0.61112158    -0.20100
C2022       C  0.64270264  0.12010389  0.61326156    -0.06700
C2023       C  0.62705671  0.10002659  0.59270181     0.14200
C2024       C  0.60910030  0.11816850  0.57265173    -0.20200
C2025       C  0.60902745  0.15585514  0.57119104    -0.06700
C2026       C  0.62803043  0.17583966  0.58997179     0.14100
C2027       C  0.63208473  0.21609011  0.58777837    -0.23500
H2028       H  0.65555324  0.17373121  0.62655416     0.15400
H2029       H  0.59549581  0.10276064  0.55773062     0.15500
C2030       C  0.62962613  0.05968368  0.59077985    -0.23500
H2031       H  0.64938842  0.22697761  0.60338926     0.05700
H2032       H  0.60662791  0.22976732  0.58968032     0.08900
H2033       H  0.64372008  0.22294670  0.56845381     0.08900
H2034       H  0.60338939  0.04757619  0.59294117     0.08900
H2035       H  0.64736016  0.04798049  0.60570205     0.08900
H2036       H  0.64024920  0.05218403  0.57123211     0.05700
C2037       C  0.95827742  0.33326342  0.59796057    -0.20100
C2038       C  0.93580525  0.31272606  0.61394252    -0.06700
C2039       C  0.93163815  0.27547433  0.60773113     0.14200
C2040       C  0.94855188  0.26115584  0.58563844    -0.20200
C2041       C  0.97316119  0.28099536  0.57157502    -0.06700
C2042       C  0.97858505  0.31742824  0.57814217     0.14100
C2043       C  0.50761104  0.33894276  0.56582088    -0.23500
H2044       H  0.96159688  0.36164928  0.60188459     0.15400
H2045       H  0.94455256  0.23320204  0.58039425     0.15500
C2046       C  0.91259103  0.24905363  0.62507852    -0.23500
H2047       H  0.50958027  0.36625388  0.57451604     0.05700
H2048       H  0.50325837  0.34222867  0.54444186     0.08900
H2049       H  0.53286651  0.32511705  0.56902494     0.08900
H2050       H  0.88410694  0.25144521  0.62229384     0.08900
H2051       H  0.92004909  0.25287075  0.64599723     0.08900
H2052       H  0.91924225  0.22082582  0.62002329     0.05700
C2053       C  0.58526578  0.30759764  0.91567277    -0.20100
C2054       C  0.60462256  0.28123523  0.92878750    -0.06700
C2055       C  0.63950189  0.27540847  0.92105465     0.14200
C2056       C  0.65383509  0.29657991  0.90094954    -0.20200
C2057       C  0.63309898  0.31947870  0.88522284    -0.06700
C2058       C  0.59755718  0.32420159  0.89273191     0.14100
C2059       C  0.57062876  0.34302642  0.87598237    -0.23500
H2060       H  0.55876996  0.31257782  0.92201774     0.15400
H2061       H  0.68118223  0.29312957  0.89658473     0.15500
C2062       C  0.66205335  0.24624949  0.93266246    -0.23500
H2063       H  0.54375800  0.33564777  0.88193891     0.05700
H2064       H  0.57315682  0.33495431  0.85505292     0.08900
H2065       H  0.57250681  0.37253597  0.87844358     0.08900
H2066       H  0.64817565  0.22940217  0.94720299     0.08900
H2067       H  0.68508271  0.25847816  0.94238418     0.08900
H2068       H  0.67116904  0.22816228  0.91671642     0.05700
C2069       C  0.92117591  0.13503667  0.90365458    -0.20100
C2070       C  0.94202217  0.11864251  0.88430631    -0.06700
C2071       C  0.97887778  0.11998901  0.88723737     0.14200
C2072       C  0.99317300  0.13517580  0.90998110    -0.20200
C2073       C  0.97243318  0.15265655  0.92859581    -0.06700
C2074       C  0.93595721  0.15346218  0.92506955     0.14100
C2075       C  0.91277522  0.17562065  0.94265069    -0.23500
H2076       H  0.89314730  0.13494793  0.90133367     0.15400
H2077       H  0.52120290  0.13549071  0.91252844     0.15500
C2078       C  0.00392399  0.10915475  0.86574056    -0.23500
H2079       H  0.88528005  0.17503462  0.93589657     0.05700
H2080       H  0.92159788  0.20402943  0.94250618     0.08900
H2081       H  0.91330012  0.16538952  0.96307660     0.08900
H2082       H  0.99551549  0.12058325  0.84658690     0.08900
H2083       H  0.00622584  0.07956382  0.86447579     0.08900
H2084       H  0.53058666  0.11942968  0.86960287     0.05700
C2085       C  0.85396288  0.07176833  0.59979454    -0.20100
C2086       C  0.87343542  0.05002916  0.61709355    -0.06700
C2087       C  0.88050885  0.01392702  0.60948321     0.14200
C2088       C  0.87145028  0.00250590  0.58416952    -0.20200
C2089       C  0.84854938  0.02266761  0.56861775    -0.06700
C2090       C  0.83945305  0.05779201  0.57664061     0.14100
C2091       C  0.81354212  0.08076950  0.56201496    -0.23500
H2092       H  0.84854023  0.09949535  0.60478451     0.15400
H2093       H  0.87764641  0.47526925  0.57820139     0.15500
C2094       C  0.89309813  0.98505896  0.62813420    -0.23500
H2095       H  0.79183512  0.08801355  0.57539390     0.05700
H2096       H  0.80205806  0.06715129  0.54469110     0.08900
H2097       H  0.82643130  0.10579587  0.55523996     0.08900
H2098       H  0.89164112  0.99308170  0.64906549     0.08900
H2099       H  0.92008562  0.97707097  0.62303179     0.08900
H2100       H  0.87607823  0.46103789  0.62639401     0.05700
C2101       C  0.70508674  0.36899977  0.56827831    -0.20100
C2102       C  0.70840368  0.40646017  0.56591691    -0.06700
C2103       C  0.69493789  0.42875037  0.58594132     0.14200
C2104       C  0.68400514  0.41322602  0.60950421    -0.20200
C2105       C  0.68355963  0.37572241  0.61302856    -0.06700
C2106       C  0.69166522  0.35332464  0.59133101     0.14100
C2107       C  0.68499231  0.31338716  0.59183507    -0.23500
H2108       H  0.71418693  0.35195324  0.55242703     0.15400
H2109       H  0.67655146  0.43085603  0.62551232     0.15500
C2110       C  0.69303828  0.46909154  0.58340986    -0.23500
H2111       H  0.68958027  0.30100535  0.57226060     0.05700
H2112       H  0.65746707  0.30824240  0.59726672     0.08900
H2113       H  0.70239525  0.29969423  0.60597988     0.08900
H2114       H  0.70122547  0.47875152  0.56374670     0.08900
H2115       H  0.70985382  0.48184672  0.59854476     0.08900
H2116       H  0.66577430  0.47803162  0.58646439     0.05700
C2117       C  0.68206238  0.02646479  0.07293363    -0.20100
C2118       C  0.71826310  0.02217671  0.07119654    -0.06700
C2119       C  0.73984841  0.03838679  0.09036608     0.14200
C2120       C  0.72461391  0.05657727  0.11153526    -0.20200
C2121       C  0.68830793  0.06044456  0.11370341    -0.06700
C2122       C  0.66686046  0.04629889  0.09344174     0.14100
C2123       C  0.62812783  0.05243744  0.09226117    -0.23500
H2124       H  0.66560240  0.51474753  0.05788107     0.15400
H2125       H  0.74134671  0.06694694  0.12694098     0.15500
C2126       C  0.77903017  0.03704302  0.08848719    -0.23500
H2127       H  0.62113604  0.06413857  0.07286800     0.05700
H2128       H  0.61882573  0.07152335  0.10742163     0.08900
H2129       H  0.61430509  0.02644119  0.09460602     0.08900
H2130       H  0.78748806  0.04800724  0.06922928     0.08900
H2131       H  0.78853693  0.00908425  0.09056279     0.08900
H2132       H  0.79165007  0.05321752  0.10420000     0.05700
C2133       C  0.64926942  0.14488099  0.40046535    -0.20100
C2134       C  0.62880061  0.12168856  0.38478222    -0.06700
C2135       C  0.59477735  0.11295372  0.39402671     0.14200
C2136       C  0.58481608  0.12324298  0.41942048    -0.20200
C2137       C  0.60327413  0.14972831  0.43312377    -0.06700
C2138       C  0.63580498  0.16113336  0.42328864     0.14100
C2139       C  0.65536331  0.19192802  0.43572265    -0.23500
H2140       H  0.67531911  0.15193705  0.39438327     0.15400
H2141       H  0.55935874  0.11539595  0.42661268     0.15500
C2142       C  0.56594941  0.09843852  0.37673548    -0.23500
H2143       H  0.67927190  0.19867449  0.42453141     0.05700
H2144       H  0.66336399  0.18519290  0.45605016     0.08900
H2145       H  0.63858444  0.21621653  0.43609913     0.08900
H2146       H  0.56086204  0.06982240  0.38152877     0.08900
H2147       H  0.57133726  0.10179164  0.35549016     0.08900
H2148       H  0.54160980  0.11385163  0.38017655     0.05700
C2149       C  0.83341244  0.02729265  0.40956727    -0.20100
C2150       C  0.85557343  0.01528167  0.42967818    -0.06700
C2151       C  0.89189089  0.02041077  0.42690926     0.14200
C2152       C  0.90460983  0.03946885  0.40502048    -0.20200
C2153       C  0.88235920  0.05128768  0.38474557    -0.06700
C2154       C  0.84623276  0.04362233  0.38673738     0.14100
C2155       C  0.82110290  0.04940585  0.36422737    -0.23500
H2156       H  0.80568268  0.02248377  0.41133282     0.15400
H2157       H  0.93238939  0.04389163  0.40328296     0.15500
C2158       C  0.91804731  0.00471614  0.44579261    -0.23500
H2159       H  0.79570038  0.03609909  0.36790968     0.05700
H2160       H  0.83185129  0.03772579  0.34585529     0.08900
H2161       H  0.81548410  0.07831564  0.36146526     0.08900
H2162       H  0.90590189  0.48831905  0.46146568     0.08900
H2163       H  0.93319879  0.02669300  0.45513868     0.08900
H2164       H  0.93619356  0.98693555  0.43487596     0.05700
C2165       C  0.62140982  0.32152778  0.09657615    -0.20100
C2166       C  0.63730720  0.29809091  0.11472713    -0.06700
C2167       C  0.64015465  0.26097431  0.10812145     0.14200
C2168       C  0.62815590  0.24913843  0.08358129    -0.20200
C2169       C  0.60995285  0.27206632  0.06663676    -0.06700
C2170       C  0.60634210  0.30870648  0.07322275     0.14100
C2171       C  0.58466363  0.33377436  0.05664824    -0.23500
H2172       H  0.61920829  0.34983680  0.10125158     0.15400
H2173       H  0.62989344  0.22085314  0.07858533     0.15500
C2174       C  0.65178379  0.23252421  0.12747043    -0.23500
H2175       H  0.58318632  0.36107027  0.06541887     0.05700
H2176       H  0.55774169  0.32318709  0.05494870     0.08900
H2177       H  0.59603493  0.33647561  0.03674362     0.08900
H2178       H  0.63965173  0.23712636  0.14698274     0.08900
H2179       H  0.68049813  0.23192071  0.12914277     0.08900
H2180       H  0.64380972  0.20520783  0.12100494     0.05700
C2181       C  0.93490009  0.15600542  0.10468768    -0.20100
C2182       C  0.94304001  0.12049427  0.11221980    -0.06700
C2183       C  0.96225133  0.09890930  0.09430721     0.14200
C2184       C  0.97850114  0.11523754  0.07271370    -0.20200
C2185       C  0.97202522  0.15126229  0.06637098    -0.06700
C2186       C  0.94759086  0.17085055  0.08129193     0.14100
C2187       C  0.93542322  0.20766740  0.07286229    -0.23500
H2188       H  0.91965353  0.17306603  0.11746382     0.15400
H2189       H  0.49584898  0.09956052  0.06044650     0.15500
C2190       C  0.96488895  0.05859351  0.09644908    -0.23500
H2191       H  0.91522390  0.21845764  0.08631972     0.05700
H2192       H  0.92394788  0.20599186  0.05284367     0.08900
H2193       H  0.95723575  0.22708927  0.07258880     0.08900
H2194       H  0.94740440  0.04734177  0.11166322     0.08900
H2195       H  0.99218503  0.05069744  0.10069800     0.08900
H2196       H  0.45684357  0.04622905  0.07751528     0.05700
C2197       C  0.71178399  0.41862034  0.40798150    -0.20100
C2198       C  0.72216774  0.39618318  0.42867267    -0.06700
C2199       C  0.71598680  0.35883377  0.42695584     0.14200
C2200       C  0.69867590  0.34501185  0.40479725    -0.20200
C2201       C  0.68862448  0.36738287  0.38386201    -0.06700
C2202       C  0.69585174  0.40474669  0.38534403     0.14100
C2203       C  0.68933294  0.42994665  0.36257553    -0.23500
H2204       H  0.71738857  0.44713214  0.40922723     0.15400
H2205       H  0.69407861  0.31634295  0.40331916     0.15500
C2206       C  0.72940007  0.33328399  0.44761278    -0.23500
H2207       H  0.70023897  0.45711223  0.36635068     0.05700
H2208       H  0.66106856  0.43344579  0.35919449     0.08900
H2209       H  0.70187257  0.41934174  0.34450933     0.08900
H2210       H  0.71684112  0.33863178  0.46680475     0.08900
H2211       H  0.75799854  0.33645347  0.44969252     0.08900
H2212       H  0.72398615  0.30485970  0.44234342     0.05700
C2213       C  0.87132535  0.34412670  0.09469995    -0.20100
C2214       C  0.88186873  0.36702250  0.11523226    -0.06700
C2215       C  0.87265654  0.40391970  0.11403727     0.14200
C2216       C  0.85531758  0.41710068  0.09175614    -0.20200
C2217       C  0.84483148  0.39430440  0.07124524    -0.06700
C2218       C  0.85224922  0.35712107  0.07302698     0.14100
C2219       C  0.83835856  0.33075305  0.05308656    -0.23500
H2220       H  0.87717514  0.31569088  0.09604873     0.15400
H2221       H  0.84875206  0.44540450  0.09067813     0.15500
C2222       C  0.87851430  0.42923862  0.13684884    -0.23500
H2223       H  0.84455102  0.30258985  0.05860115     0.05700
H2224       H  0.84987801  0.33568307  0.03348765     0.08900
H2225       H  0.80962693  0.33329261  0.05175673     0.08900
H2226       H  0.90660643  0.43457821  0.13966073     0.08900
H2227       H  0.86735687  0.41760954  0.15508976     0.08900
H2228       H  0.86577382  0.45565356  0.13353849     0.05700
C2229       C  0.92807696  0.29227200  0.40324467    -0.20100
C2230       C  0.95152527  0.30587323  0.38447355    -0.06700
C2231       C  0.98754413  0.30718351  0.39082448     0.14200
C2232       C  0.99841554  0.29632662  0.41582531    -0.20200
C2233       C  0.97547147  0.27969574  0.43341799    -0.06700
C2234       C  0.93976562  0.27742242  0.42699785     0.14100
C2235       C  0.91366098  0.25769784  0.44371373    -0.23500
H2236       H  0.90052769  0.29117591  0.39872117     0.15400
H2237       H  0.52633372  0.29593012  0.42020896     0.15500
C2238       C  0.01550052  0.31551051  0.37082988    -0.23500
H2239       H  0.90140506  0.23599184  0.43190594     0.05700
H2240       H  0.89312543  0.27665877  0.45026906     0.08900
H2241       H  0.92532310  0.24501329  0.46132759     0.08900
H2242       H  0.01780620  0.34483381  0.36763663     0.08900
H2243       H  0.01001012  0.30145483  0.35200479     0.08900
H2244       H  0.54168884  0.30459078  0.37703348     0.05700
C2245       C  0.93769073  0.81582774  0.35800828     0.03300
C2246       C  0.94994904  0.84644822  0.34496785    -0.12900
C2247       C  0.94133352  0.85285961  0.31867760     0.00800
C2248       C  0.91617434  0.83151418  0.30641779    -0.11400
C2249       C  0.90107503  0.80261059  0.31987243     0.03300
C2250       C  0.91299167  0.79392082  0.34519382    -0.10800
H2251       H  0.96651820  0.86531504  0.35513129     0.08900
H2252       H  0.90851575  0.83717034  0.28633467     0.06400
H2253       H  0.90290260  0.77030219  0.35494200     0.06300
C2254       C  0.89848302  0.85121865  0.13908956     0.03300
C2255       C  0.92879349  0.86647400  0.14996781    -0.12900
C2256       C  0.93883840  0.85811737  0.17578873     0.00800
C2257       C  0.92030209  0.83206325  0.18985543    -0.11400
C2258       C  0.89218146  0.81403746  0.17829941     0.03300
C2259       C  0.88130570  0.82369506  0.15290273    -0.10800
H2260       H  0.94271389  0.88708569  0.13927773     0.08900
H2261       H  0.92713762  0.82658366  0.21016942     0.06400
H2262       H  0.85772366  0.81203753  0.14487091     0.06300
C2263       C  0.67530002  0.85051248  0.35935789     0.03300
C2264       C  0.69548336  0.82430821  0.34660386    -0.12900
C2265       C  0.68778141  0.81397364  0.32074012     0.00800
C2266       C  0.65986408  0.83021894  0.30752491    -0.11400
C2267       C  0.63817857  0.85470479  0.32066758     0.03300
C2268       C  0.64515988  0.86352485  0.34696479    -0.10800
H2269       H  0.71878271  0.81404722  0.35601895     0.08900
H2270       H  0.65534261  0.82425160  0.28692251     0.06400
H2271       H  0.62892370  0.88293536  0.35698761     0.06300
C2272       C  0.93365831  0.60825778  0.13943977     0.03300
C2273       C  0.90368073  0.62144593  0.15197524    -0.12900
C2274       C  0.89684252  0.61375853  0.17848973     0.00800
C2275       C  0.91808356  0.58919282  0.19185139    -0.11400
C2276       C  0.94756783  0.57464085  0.17946255     0.03300
C2277       C  0.95624124  0.58605345  0.15398789    -0.10800
H2278       H  0.88564282  0.63819032  0.14118763     0.08900
H2279       H  0.91210315  0.58203329  0.21199930     0.06400
H2280       H  0.98046736  0.57730261  0.14536959     0.06300
C2281       C  0.95962221  0.88115963  0.30409540     0.42600
N2282       N  0.49677214  0.92184604  0.29468471     0.01500
C2283       C  0.50003450  0.52889529  0.18325137    -0.06400
H2284       H  0.51005736  0.89283904  0.16281112     0.07000
C2285       C  0.62645824  0.89535572  0.21829439    -0.06700
Co2286     Co  0.97672263  0.96189444  0.24618672     0.74200
N2287       N  0.50318586  0.92335334  0.19866502    -0.25900
Co2288     Co  0.54305916  0.96151124  0.20019082     0.74100
C2289       C  0.61639559  0.87826352  0.19362328     0.42700
N2290       N  0.59910969  0.91944426  0.27965868     0.01100
N2291       N  0.58114628  0.92152205  0.20196108     0.01200
N2292       N  0.95749745  0.52808526  0.21394411    -0.46700
H2293       H  0.92721914  0.89308902  0.26691317     0.07000
N2294       N  0.97866552  0.92310540  0.21676712     0.01500
N2295       N  0.58255814  0.99993253  0.20294572     0.01300
C2296       C  0.61849123  0.54246366  0.19464320     0.42900
N2297       N  0.57454407  0.91980970  0.29774238    -0.25400
C2298       C  0.95118825  0.52464781  0.28035271    -0.06300
N2299       N  0.48879192  0.89757056  0.31264241    -0.46500
N2300       N  0.59052079  0.52468025  0.18510917    -0.46700
C2301       C  0.95941394  0.53887846  0.30623743     0.42600
N2302       N  0.98009093  0.00173755  0.21763669     0.01500
N2303       N  0.57622400  0.99749403  0.29921375    -0.25400
N2304       N  0.97427958  0.92260652  0.27503849    -0.25900
N2305       N  0.60124179  0.99756067  0.28146206     0.01100
H2306       H  0.56831495  0.52716652  0.33503314     0.07000
H2307       H  0.65014132  0.53076078  0.23209151     0.07100
N2308       N  0.50514992  0.00151043  0.19996534    -0.25900
N2309       N  0.60336586  0.92160100  0.22174552    -0.25500
N2310       N  0.49755229  0.99934233  0.29603368     0.01500
C2311       C  0.96344324  0.88136337  0.19004452     0.42900
C2312       C  0.58130689  0.89363133  0.31520677    -0.06800
N2313       N  0.60445381  0.99960458  0.22297688    -0.25500
H2314       H  0.64830611  0.89020395  0.23115575     0.07100
N2315       N  0.95443858  0.89864634  0.21229871    -0.46700
H2316       H  0.56674615  0.88843641  0.33298877     0.07000
C2317       C  0.61679436  0.53742124  0.30933474     0.42700
C2318       C  0.94989092  0.89754975  0.27911075    -0.06300
Co2319     Co  0.53623422  0.95971740  0.29745558     0.73800
N2320       N  0.62265001  0.89415264  0.28372551    -0.46500
C2321       C  0.96846672  0.54668782  0.19276080     0.43000
N2322       N  0.48799887  0.52142874  0.31507252    -0.46500
Co2323     Co  0.60251738  0.95965421  0.25146711     0.73900
C2324       C  0.62785588  0.52580824  0.21958144    -0.06800
C2325       C  0.49554255  0.89811817  0.18060036    -0.06300
N2326       N  0.97573425  0.00007660  0.27588598    -0.25900
N2327       N  0.58819580  0.89613013  0.18436914    -0.46600
H2328       H  0.51607513  0.53495076  0.16638085     0.07000
C2329       C  0.58351536  0.52203241  0.31755159    -0.06800
Cl2330     Cl  0.53963031  0.96077731  0.24886105    -0.49800
C2331       C  0.61305372  0.87626278  0.30556217     0.42800
H2332       H  0.92846119  0.52926126  0.26823067     0.07000
N2333       N  0.62593369  0.52116556  0.28669340    -0.46500
C2334       C  0.64787652  0.81258237  0.14103274     0.03300
C2335       C  0.62683981  0.83779138  0.15450055    -0.12900
C2336       C  0.63621824  0.84993116  0.17973192     0.00800
C2337       C  0.66538554  0.83486866  0.19209630    -0.11400
C2338       C  0.68641230  0.81012889  0.17904469     0.03300
C2339       C  0.67880055  0.80093129  0.15303165    -0.10800
H2340       H  0.60313854  0.84773827  0.14555885     0.08900
H2341       H  0.67170572  0.84202090  0.21211256     0.06400
H2342       H  0.69697522  0.78442732  0.14229703     0.06300
C2343       C  0.89776096  0.56747156  0.36047699     0.03300
C2344       C  0.88225083  0.59762884  0.34845481    -0.12900
C2345       C  0.89023494  0.60647501  0.32235152     0.00800
C2346       C  0.91695661  0.58819601  0.30946481    -0.11400
C2347       C  0.93527071  0.56062656  0.32203984     0.03300
C2348       C  0.92547570  0.55005532  0.34749458    -0.10800
H2349       H  0.86196078  0.61229084  0.35852202     0.08900
H2350       H  0.92263250  0.59455525  0.28910078     0.06400
H2351       H  0.93737521  0.52646752  0.35617580     0.06300
C2352       C  0.64238657  0.60818561  0.35881632     0.03300
C2353       C  0.62986885  0.57573309  0.34826897    -0.12900
C2354       C  0.63708583  0.56602227  0.32230801     0.00800
C2355       C  0.66235264  0.58506953  0.30829028    -0.11400
C2356       C  0.67871930  0.61515770  0.31943971     0.03300
C2357       C  0.66761206  0.62746810  0.34428524    -0.10800
H2358       H  0.61279904  0.55887979  0.35978635     0.08900
H2359       H  0.66867275  0.57676976  0.28847047     0.06400
H2360       H  0.67827398  0.65227148  0.35192027     0.06300
C2361       C  0.67431191  0.57579510  0.13865371     0.03300
C2362       C  0.69108471  0.60511913  0.15083156    -0.12900
C2363       C  0.68498223  0.61303445  0.17740397     0.00800
C2364       C  0.65998669  0.59338597  0.19131838    -0.11400
C2365       C  0.64141617  0.56570920  0.17900718     0.03300
C2366       C  0.64896624  0.55670704  0.15287001    -0.10800
H2367       H  0.71135952  0.61946590  0.14042542     0.08900
H2368       H  0.65593603  0.59874885  0.21205579     0.06400
H2369       H  0.63722382  0.53288686  0.14440349     0.06300
C2370       C  0.87072563  0.78999460  0.19452711     0.42600
N2371       N  0.82997167  0.75285295  0.20396621     0.01500
C2372       C  0.72713080  0.75651237  0.31628004    -0.06400
H2373       H  0.85966657  0.73380229  0.33379409     0.07000
C2374       C  0.85137118  0.61917157  0.28157400    -0.06700
Co2375     Co  0.79202591  0.77557015  0.25248278     0.74200
N2376       N  0.82803262  0.74581415  0.29980874    -0.25900
Co2377     Co  0.78890554  0.70727219  0.29873209     0.74100
C2378       C  0.86676791  0.62933955  0.30673888     0.42700
N2379       N  0.82721534  0.64644420  0.21872325     0.01100
N2380       N  0.82565190  0.66603263  0.29742155     0.01200
N2381       N  0.72933907  0.79952841  0.28490625    -0.46700
H2382       H  0.86072717  0.82322749  0.23184804     0.07000
N2383       N  0.82921103  0.77156115  0.28202122     0.01500
N2384       N  0.74987394  0.66857334  0.29624660     0.01300
C2385       C  0.70690649  0.63365628  0.30485006     0.42900
N2386       N  0.82751085  0.67274154  0.20131864    -0.25400
C2387       C  0.73107828  0.80336206  0.21797772    -0.06300
N2388       N  0.85302537  0.76107452  0.18554425    -0.46500
N2389       N  0.72471874  0.66265530  0.31353591    -0.46700
C2390       C  0.71543743  0.79278590  0.19297223     0.42600
N2391       N  0.75315181  0.77437723  0.28096690     0.01500
N2392       N  0.75221630  0.67458421  0.20050364    -0.25400
N2393       N  0.83049495  0.77570831  0.22381696    -0.25900
N2394       N  0.75090864  0.64897973  0.21843311     0.01100
H2395       H  0.72237459  0.68446771  0.16514032     0.07000
H2396       H  0.71827596  0.59881269  0.26822889     0.07100
N2397       N  0.75239129  0.74884578  0.29897078    -0.25900
N2398       N  0.82600884  0.64316983  0.27755227    -0.25500
N2399       N  0.75475152  0.75470875  0.20322340     0.01500
C2400       C  0.87242857  0.78252965  0.30740265     0.42900
C2401       C  0.85264099  0.66666942  0.18379011    -0.06800
N2402       N  0.75006648  0.64490021  0.27690343    -0.25500
H2403       H  0.85689515  0.59618928  0.26923442     0.07100
N2404       N  0.85523896  0.79413322  0.28589160    -0.46700
H2405       H  0.85843889  0.68348294  0.16702021     0.07000
C2406       C  0.70906788  0.63649760  0.19197711     0.42700
C2407       C  0.85574609  0.79980848  0.21980681    -0.06300
Co2408     Co  0.79110554  0.71369327  0.20176421     0.73800
N2409       N  0.85146333  0.62186277  0.21393357    -0.46500
C2410       C  0.71155429  0.78979506  0.30659519     0.43000
N2411       N  0.73134848  0.76240150  0.18497401    -0.46500
Co2412     Co  0.78860901  0.64508463  0.24786636     0.73900
C2413       C  0.72382124  0.62177471  0.28057501    -0.06800
C2414       C  0.85432363  0.75050283  0.31686590    -0.06300
N2415       N  0.75523685  0.77828695  0.22260007    -0.25900
N2416       N  0.84910362  0.65818828  0.31572255    -0.46600
H2417       H  0.72106335  0.74124123  0.33377246     0.07000
C2418       C  0.72700049  0.66870770  0.18267310    -0.06800
Cl2419     Cl  0.79014278  0.71037488  0.25019978    -0.49800
C2420       C  0.86838060  0.63291471  0.19205376     0.42800
H2421       H  0.72632496  0.82675081  0.23007456     0.07000
N2422       N  0.72565283  0.62560908  0.21397837    -0.46500
N2423       N  0.78077889  0.96274801  0.53836438    -0.36400
N2424       N  0.82872077  0.99255860  0.49952530    -0.57000
N2425       N  0.78933148  0.95534519  0.45921469    -0.36400
N2426       N  0.74444616  0.92182076  0.49822422    -0.57000
C2427       C  0.80580945  0.97661973  0.55412816     0.27100
C2428       C  0.76194010  0.93948207  0.55306206     0.27100
C2429       C  0.81821271  0.96552012  0.44601618     0.27100
C2430       C  0.77449818  0.92832448  0.44537001     0.27100
C2431       C  0.83799747  0.51255348  0.52057620     0.35800
C2432       C  0.84170804  0.50930506  0.47808817     0.35800
C2433       C  0.72215901  0.91706584  0.51837762     0.35800
C2434       C  0.72674782  0.91356246  0.47612365     0.35800
C2435       C  0.80224266  0.96225553  0.57924603    -0.21700
C2436       C  0.77520265  0.93842711  0.57838344    -0.21700
C2437       C  0.82195606  0.94454565  0.42365823    -0.21700
C2438       C  0.79434095  0.92101904  0.42325514    -0.21700
C2439       C  0.85789319  0.54162576  0.51254692    -0.22800
C2440       C  0.85963850  0.53996726  0.48555009    -0.22800
C2441       C  0.69018389  0.90537371  0.50916520    -0.22800
C2442       C  0.69299203  0.90346205  0.48222883    -0.22800
C2443       C  0.83003647  0.50373169  0.54694812    -0.18100
C2444       C  0.73125799  0.92149575  0.54498464    -0.18100
C2445       C  0.74181357  0.91261458  0.45089226    -0.18100
C2446       C  0.83906715  0.49573290  0.45217035    -0.18100
H2447       H  0.81675893  0.96842457  0.59686227     0.14800
H2448       H  0.76578435  0.92288313  0.59488237     0.14800
H2449       H  0.84209467  0.94660819  0.40888126     0.14800
H2450       H  0.78899886  0.90132985  0.40809975     0.14800
H2451       H  0.86976535  0.56202676  0.52478485     0.13100
H2452       H  0.87310890  0.55880980  0.47297860     0.13100
H2453       H  0.66733822  0.89891611  0.52063990     0.13100
H2454       H  0.67279267  0.89494161  0.46874134     0.13100
H2455       H  0.77536090  0.97065241  0.51923414     0.26300
H2456       H  0.77860887  0.96830004  0.47539058     0.26300
N2457       N  0.54169805  0.71126886  0.03782159    -0.36400
N2458       N  0.58081812  0.75076551  0.99735472    -0.57000
N2459       N  0.53991674  0.71446954  0.95718773    -0.36400
N2460       N  0.99791782  0.67816037  0.99781509    -0.57000
C2461       C  0.56085755  0.73332252  0.05323443     0.27100
C2462       C  0.51817308  0.69460703  0.05342234     0.27100
C2463       C  0.55708630  0.73864626  0.94202557     0.27100
C2464       C  0.51367662  0.70051509  0.94257797     0.27100
C2465       C  0.59895373  0.76147247  0.01877063     0.35800
C2466       C  0.59783927  0.76359220  0.97608802     0.35800
C2467       C  0.98654717  0.65946300  0.01889122     0.35800
C2468       C  0.98599926  0.66077963  0.97631377     0.35800
C2469       C  0.54953672  0.73029995  0.07906178    -0.21700
C2470       C  0.52330120  0.70549715  0.07925832    -0.21700
C2471       C  0.54189077  0.73898165  0.91716020    -0.21700
C2472       C  0.51428949  0.71571956  0.91773153    -0.21700
C2473       C  0.62769674  0.78127948  0.01111467    -0.22800
C2474       C  0.62663130  0.78324352  0.98418871    -0.22800
C2475       C  0.96664065  0.63046286  0.01070774    -0.22800
C2476       C  0.96695658  0.63084743  0.98374699    -0.22800
C2477       C  0.58918899  0.75523273  0.04521179    -0.18100
C2478       C  0.99288352  0.66897008  0.04539530    -0.18100
C2479       C  0.99061554  0.67247901  0.95012535    -0.18100
C2480       C  0.58665700  0.75957388  0.94960367    -0.18100
H2481       H  0.55926971  0.74424683  0.09624102     0.14800
H2482       H  0.50966275  0.69666505  0.09667456     0.10800
H2483       H  0.54978615  0.75376174  0.89990661     0.14800
H2484       H  0.49709732  0.71003111  0.90136375     0.14800
H2485       H  0.64695079  0.79386349  0.02365538     0.13100
H2486       H  0.64485745  0.79796672  0.97214149     0.13100
H2487       H  0.95338529  0.61084365  0.02274536     0.13100
H2488       H  0.95401828  0.61163727  0.97108447     0.13100
H2489       H  0.54536102  0.70695797  0.01800407     0.26300
H2490       H  0.54681362  0.70630777  0.97589720     0.26300
N2491       N  0.53659517  0.71236274  0.46262098    -0.36400
N2492       N  0.49926331  0.75368189  0.50287561    -0.57000
N2493       N  0.54340805  0.72061976  0.54294702    -0.36400
N2494       N  0.57994888  0.67828567  0.50241138    -0.57000
C2495       C  0.51504009  0.73167095  0.44701007     0.27100
C2496       C  0.55725439  0.69235832  0.44675369     0.27100
C2497       C  0.51918987  0.73666753  0.55844960     0.27100
C2498       C  0.56131079  0.69699145  0.55812126     0.27100
C2499       C  0.98453875  0.76879814  0.48150788     0.35800
C2500       C  0.98583822  0.77066025  0.52409770     0.35800
C2501       C  0.59459919  0.66273566  0.48108063     0.35800
C2502       C  0.59766565  0.66643402  0.52364766     0.35800
C2503       C  0.52130804  0.72273575  0.42092330    -0.21700
C2504       C  0.54825285  0.69892209  0.42072821    -0.21700
C2505       C  0.52270800  0.72376578  0.58394380    -0.21700
C2506       C  0.54857524  0.69842409  0.58360372    -0.21700
C2507       C  0.96148492  0.79548630  0.48904557    -0.22800
C2508       C  0.96170464  0.79610695  0.51598599    -0.22800
C2509       C  0.62135287  0.64020406  0.48887926    -0.22800
C2510       C  0.62391199  0.64324065  0.51568751    -0.22800
C2511       C  0.99100495  0.75860025  0.45517199    -0.18100
C2512       C  0.58444980  0.66866730  0.45463365    -0.18100
C2513       C  0.58944555  0.67458572  0.55018035    -0.18100
C2514       C  0.99398963  0.76268141  0.55063466    -0.18100
H2515       H  0.50830380  0.73263697  0.40349104     0.14800
H2516       H  0.56000160  0.68828264  0.40306781     0.14800
H2517       H  0.50824281  0.73146074  0.60125710     0.14800
H2518       H  0.55725441  0.68303870  0.60044111     0.14800
H2519       H  0.94562053  0.81234014  0.47650298     0.13100
H2520       H  0.94585085  0.81345295  0.52813418     0.13100
H2521       H  0.63768022  0.62357767  0.47654457     0.13100
H2522       H  0.64275095  0.62940034  0.52783739     0.13100
H2523       H  0.53738003  0.71325792  0.48281709     0.26300
H2524       H  0.54848025  0.72648597  0.52345482     0.26300
N2525       N  0.77929522  0.95820270  0.96217729    -0.36400
N2526       N  0.81791736  0.91750233  0.00191724    -0.57000
N2527       N  0.77903525  0.95605941  0.04146047    -0.36400
N2528       N  0.73789323  0.99354364  0.00150582    -0.57000
C2529       C  0.79589598  0.93301009  0.94777024     0.27100
C2530       C  0.75332948  0.97162743  0.94706174     0.27100
C2531       C  0.79285470  0.92864031  0.05552551     0.27100
C2532       C  0.75203683  0.96927741  0.05542839     0.27100
C2533       C  0.83870482  0.91241301  0.98091348     0.35800
C2534       C  0.83720499  0.90973698  0.02337716     0.35800
C2535       C  0.72765934  0.51269588  0.98027891     0.35800
C2536       C  0.72878575  0.51274106  0.02295016     0.35800
C2537       C  0.78016267  0.92986775  0.92336594    -0.21700
C2538       C  0.75386222  0.95466366  0.92268423    -0.21700
C2539       C  0.77410932  0.92412274  0.07856498    -0.21700
C2540       C  0.74833018  0.94984715  0.07852027    -0.21700
C2541       C  0.87132711  0.90093706  0.98893538    -0.22800
C2542       C  0.87045566  0.89947308  0.01599594    -0.22800
C2543       C  0.71106609  0.54390387  0.98831137    -0.22800
C2544       C  0.71224542  0.54418636  0.01536296    -0.22800
C2545       C  0.82764181  0.91647338  0.95467682    -0.18100
C2546       C  0.73161344  0.50100658  0.95395232    -0.18100
C2547       C  0.73336093  0.50084731  0.04913738    -0.18100
C2548       C  0.82408612  0.91035061  0.04926329    -0.18100
H2549       H  0.78806580  0.91286356  0.90716043     0.14800
H2550       H  0.73823166  0.96018601  0.90551726     0.14800
H2551       H  0.77913878  0.90495480  0.09411908     0.14800
H2552       H  0.72963645  0.95448697  0.09405077     0.14800
H2553       H  0.89334407  0.89433976  0.97660400     0.13100
H2554       H  0.89166185  0.89145524  0.02874077     0.13100
H2555       H  0.69918622  0.56431832  0.97611695     0.13100
H2556       H  0.70161432  0.56490704  0.02793588     0.13100
H2557       H  0.78747455  0.96790786  0.98030384     0.26300
H2558       H  0.78938438  0.96742282  0.02451969     0.26300
C2559       C  0.89070652  0.86580124  0.85926020     0.03300
C2560       C  0.87111654  0.84088970  0.84461424    -0.12900
C2561       C  0.88122076  0.83138201  0.81900442     0.00800
C2562       C  0.91025759  0.84826860  0.80770612    -0.11400
C2563       C  0.92910722  0.87418904  0.82173236     0.03300
C2564       C  0.91966090  0.88223366  0.84762231    -0.10800
H2565       H  0.84804746  0.82899524  0.85318364     0.08900
H2566       H  0.91784681  0.84196015  0.78775077     0.06400
H2567       H  0.93464781  0.90159711  0.85879944     0.06300
C2568       C  0.92503835  0.60499004  0.85982005     0.03300
C2569       C  0.89950320  0.62588944  0.84699249    -0.12900
C2570       C  0.88946936  0.61781259  0.82112009     0.00800
C2571       C  0.90581367  0.58967114  0.80778118    -0.11400
C2572       C  0.93036037  0.56816253  0.82053202     0.03300
C2573       C  0.93746029  0.57391315  0.84721866    -0.10800
H2574       H  0.88969122  0.65016886  0.85610903     0.08900
H2575       H  0.90051031  0.58545036  0.78704932     0.06400
H2576       H  0.95543959  0.55631977  0.85726894     0.06300
C2577       C  0.68215427  0.56819943  0.85805523     0.03300
C2578       C  0.65144530  0.55703592  0.84529515    -0.12900
C2579       C  0.64433880  0.56683098  0.81926573     0.00800
C2580       C  0.66609516  0.59138308  0.80659643    -0.11400
C2581       C  0.69611870  0.60438275  0.81912707     0.03300
C2582       C  0.70518434  0.59084071  0.84406485    -0.10800
H2583       H  0.63273431  0.54042165  0.85546424     0.08900
H2584       H  0.65983292  0.60016749  0.78684583     0.06400
H2585       H  0.72986838  0.59840839  0.85262280     0.06300
C2586       C  0.64807573  0.83326394  0.85967182     0.03300
C2587       C  0.63598534  0.86498782  0.84755518    -0.12900
C2588       C  0.64152442  0.87094968  0.82062856     0.00800
C2589       C  0.66489734  0.84897301  0.80692351    -0.11400
C2590       C  0.68226990  0.82114844  0.81998930     0.03300
C2591       C  0.67267508  0.81239599  0.84575302    -0.10800
H2592       H  0.62006628  0.88371968  0.85824349     0.08900
H2593       H  0.66942563  0.85342399  0.78613350     0.06400
H2594       H  0.68293465  0.78778139  0.85397730     0.06300
C2595       C  0.65456210  0.60363960  0.63881031     0.03300
C2596       C  0.68352952  0.61756926  0.65239055    -0.12900
C2597       C  0.68845092  0.61009954  0.67915299     0.00800
C2598       C  0.66632205  0.58566707  0.69179432    -0.11400
C2599       C  0.63901638  0.56935886  0.67803092     0.03300
C2600       C  0.63277268  0.57894412  0.65181489    -0.10800
H2601       H  0.70025753  0.63701935  0.64286868     0.08900
H2602       H  0.66958281  0.58027928  0.71261142     0.06400
H2603       H  0.60929943  0.56931461  0.64234259     0.06300
C2604       C  0.88590780  0.56565360  0.64255735     0.03300
C2605       C  0.86612614  0.59127424  0.65638459    -0.12900
C2606       C  0.87822101  0.60592189  0.68024278     0.00800
C2607       C  0.90857455  0.59190301  0.69170748    -0.11400
C2608       C  0.92769324  0.56533818  0.67856011     0.03300
C2609       C  0.91796989  0.55517809  0.65312728    -0.10800
H2610       H  0.84132985  0.59983195  0.64857404     0.08900
H2611       H  0.91691131  0.60111964  0.71093294     0.06400
H2612       H  0.93481718  0.53770267  0.64191299     0.06300
C2613       C  0.86183271  0.80376080  0.80408124     0.42600
N2614       N  0.82659902  0.76070365  0.79520680     0.01500
C2615       C  0.82727101  0.65284260  0.68377967    -0.06400
H2616       H  0.81294714  0.78834535  0.66349320     0.07000
C2617       C  0.69691556  0.78088260  0.71784621    -0.06700
Co2618     Co  0.84904457  0.72067469  0.74686327     0.74200
N2619       N  0.82099843  0.75814040  0.69931841    -0.25900
Co2620     Co  0.78289372  0.71815903  0.70055828     0.74100
C2621       C  0.70703191  0.79832232  0.69325095     0.42700
N2622       N  0.72381310  0.75640126  0.77984550     0.01100
N2623       N  0.74324504  0.75618914  0.70214118     0.01200
N2624       N  0.87033790  0.65442310  0.71420170    -0.46700
H2625       H  0.89489769  0.79165319  0.76729927     0.07000
N2626       N  0.84544252  0.75939191  0.71753783     0.01500
N2627       N  0.74533463  0.67770903  0.70294236     0.01300
C2628       C  0.71171017  0.63292405  0.69498243     0.42900
N2629       N  0.74828387  0.75750329  0.79808050    -0.25400
C2630       C  0.87586016  0.65766513  0.78066351    -0.06300
N2631       N  0.83337653  0.78605407  0.81281597    -0.46500
N2632       N  0.73861017  0.65231405  0.68534723    -0.46700
C2633       C  0.86720449  0.64242312  0.80611649     0.42600
N2634       N  0.84742264  0.68055157  0.71799839     0.01500
N2635       N  0.75214160  0.67925429  0.79881721    -0.25400
N2636       N  0.84932006  0.76033063  0.77575752    -0.25900
N2637       N  0.72727879  0.67795407  0.78091675     0.01100
H2638       H  0.76354364  0.64662473  0.83289189     0.07000
H2639       H  0.67969172  0.64342482  0.73233884     0.07100
N2640       N  0.82216387  0.68014047  0.70041210    -0.25900
N2641       N  0.72068882  0.75522089  0.72165844    -0.25500
N2642       N  0.82970967  0.68281227  0.79657108     0.01500
C2643       C  0.85890731  0.80201077  0.69102121     0.42900
C2644       C  0.73972862  0.78299836  0.81562719    -0.06800
N2645       N  0.72354817  0.67694189  0.72290448    -0.25500
H2646       H  0.67465855  0.78559270  0.73034359     0.07100
N2647       N  0.86857069  0.78495813  0.71323888    -0.46700
H2648       H  0.75386743  0.78920342  0.83347220     0.07000
C2649       C  0.71655972  0.63312367  0.80624427     0.42700
C2650       C  0.87245115  0.78665630  0.77954217    -0.06300
Co2651     Co  0.78918803  0.72020194  0.79784049     0.73800
N2652       N  0.69862814  0.78001244  0.78380554    -0.46500
C2653       C  0.85912166  0.63564187  0.69302181     0.43000
N2654       N  0.83862211  0.65953353  0.81516279    -0.46500
Co2655     Co  0.72325377  0.71662214  0.75137817     0.73900
C2656       C  0.70162762  0.64941268  0.71978889    -0.06800
C2657       C  0.82758291  0.78378523  0.68137171    -0.06300
N2658       N  0.85150907  0.68262340  0.77653364    -0.25900
N2659       N  0.73588731  0.78136926  0.68449226    -0.46600
H2660       H  0.81078648  0.64640421  0.66718835     0.07000
C2661       C  0.74755827  0.65200173  0.81581681    -0.06800
Cl2662     Cl  0.78612190  0.71903295  0.74920083    -0.49800
C2663       C  0.70705031  0.79818192  0.80578358     0.42800
H2664       H  0.89823002  0.65273468  0.76829996     0.07000
N2665       N  0.70544880  0.65102444  0.78473203    -0.46500
C2666       C  0.92196898  0.82962283  0.63868589     0.03300
C2667       C  0.94282161  0.85409554  0.65308256    -0.12900
C2668       C  0.93389513  0.86421736  0.67878260     0.00800
C2669       C  0.90514767  0.84818804  0.69079853    -0.11400
C2670       C  0.88334592  0.82513017  0.67653905     0.03300
C2671       C  0.89013773  0.81872173  0.64985913    -0.10800
H2672       H  0.96747220  0.86326826  0.64533207     0.08900
H2673       H  0.90016486  0.85299908  0.71149134     0.06400
H2674       H  0.87208451  0.80260446  0.63873165     0.06300
C2675       C  0.67416133  0.86169539  0.63955038     0.03300
C2676       C  0.64608484  0.87752010  0.65286125    -0.12900
C2677       C  0.63965980  0.86961085  0.67923153     0.00800
C2678       C  0.65991552  0.84382120  0.69203174    -0.11400
C2679       C  0.68731215  0.82653430  0.67906222     0.03300
C2680       C  0.69518108  0.83649394  0.65301104    -0.10800
H2681       H  0.62979553  0.89697410  0.64284021     0.08900
H2682       H  0.65481414  0.83786955  0.71245172     0.06400
H2683       H  0.71806119  0.82546928  0.64366421     0.06300
C2684       C  0.95727770  0.88725321  0.69444255     0.42600
N2685       N  0.99701826  0.92566031  0.70385921     0.01500
C2686       C  0.60123386  0.92794005  0.81569826    -0.06400
H2687       H  0.96945535  0.94320790  0.83486318     0.07000
C2688       C  0.96982836  0.55740468  0.78011891    -0.06700
Co2689     Co  0.53577394  0.90466711  0.75256997     0.74200
N2690       N  0.99952564  0.93277832  0.79997265    -0.25900
Co2691     Co  0.53642347  0.97329409  0.79841174     0.74100
C2692       C  0.95377473  0.54577818  0.80467126     0.42700
N2693       N  0.99713980  0.53264324  0.71842561     0.01100
N2694       N  0.99770049  0.51225047  0.79647261     0.01200
N2695       N  0.60032573  0.88455859  0.78461936    -0.46700
H2696       H  0.96814182  0.85454348  0.73189962     0.07000
N2697       N  0.99885323  0.90685922  0.78230849     0.01500
N2698       N  0.57328520  0.51391993  0.79622316     0.01300
C2699       C  0.61456928  0.55044749  0.80542865     0.42900
N2700       N  0.99722323  0.50633901  0.70101822    -0.25400
C2701       C  0.59690511  0.87844087  0.71866646    -0.06300
N2702       N  0.97401209  0.91675758  0.68547957    -0.46500
N2703       N  0.59777351  0.52077640  0.81381222    -0.46700
C2704       C  0.61232018  0.88878609  0.69368280     0.42600
N2705       N  0.57502676  0.90814766  0.78091487     0.01500
N2706       N  0.57236682  0.50691774  0.70060999    -0.25400
N2707       N  0.99721061  0.90284818  0.72376958    -0.25900
N2708       N  0.57284860  0.53269351  0.71849686     0.01100
H2709       H  0.60248430  0.49798442  0.66533924     0.07000
H2710       H  0.60356461  0.58452799  0.76844052     0.07100
N2711       N  0.57499862  0.93388830  0.79876650    -0.25900
N2712       N  0.99688136  0.53530360  0.77675776    -0.25500
N2713       N  0.57237759  0.92640459  0.70339421     0.01500
C2714       C  0.95810861  0.89343129  0.80915074     0.42900
C2715       C  0.97227983  0.51245561  0.68327019    -0.06800
N2716       N  0.57279279  0.53742330  0.77683723    -0.25500
H2717       H  0.96331796  0.57997850  0.76765157     0.07100
N2718       N  0.97438728  0.88269449  0.78701465    -0.46700
H2719       H  0.96687524  0.49581819  0.66630505     0.07000
C2720       C  0.61404225  0.54653314  0.69211862     0.42700
C2721       C  0.97262129  0.87793080  0.71974775    -0.06300
Co2722     Co  0.53471384  0.96629351  0.70163059     0.73800
N2723       N  0.97306570  0.55722653  0.71351848    -0.46500
C2724       C  0.61840125  0.89543933  0.80597663     0.43000
N2725       N  0.59581657  0.91867130  0.68521700    -0.46500
Co2726     Co  0.53490602  0.53527711  0.74762910     0.73900
C2727       C  0.59820469  0.56154046  0.78078585    -0.06800
C2728       C  0.97470473  0.92666310  0.81783741    -0.06300
N2729       N  0.57238341  0.90312722  0.72293059    -0.25900
N2730       N  0.97289623  0.51814897  0.81401298    -0.46600
H2731       H  0.60698177  0.94380029  0.83300069     0.07000
C2732       C  0.59729861  0.51364777  0.68282417    -0.06800
Cl2733     Cl  0.53543201  0.96988467  0.75000162    -0.49800
C2734       C  0.95654274  0.54633375  0.69150895     0.42800
H2735       H  0.60177615  0.85522104  0.73090457     0.07000
N2736       N  0.59728205  0.55699540  0.71408675    -0.46500
C2737       C  0.67900168  0.51949727  0.89230116    -0.20100
C2738       C  0.69065905  0.55414159  0.88510079    -0.06700
C2739       C  0.71075279  0.57360667  0.90381159     0.14200
C2740       C  0.72415470  0.55561355  0.92591775    -0.20200
C2741       C  0.71345615  0.52063606  0.93227536    -0.06700
C2742       C  0.68796332  0.50391744  0.91643483     0.14100
C2743       C  0.67050313  0.96913686  0.92406083    -0.23500
H2744       H  0.66313014  0.50368810  0.87906792     0.15400
H2745       H  0.74238213  0.56939594  0.93872202     0.15500
C2746       C  0.71670697  0.61359522  0.90235107    -0.23500
H2747       H  0.64192898  0.97335571  0.92490429     0.05700
H2748       H  0.67898973  0.95926729  0.94362141     0.08900
H2749       H  0.67607210  0.94807078  0.90917850     0.08900
H2750       H  0.70025361  0.62686763  0.88731659     0.08900
H2751       H  0.74459193  0.61921182  0.89846184     0.08900
H2752       H  0.70947905  0.62605938  0.92143314     0.05700
C2753       C  0.85410935  0.86662857  0.92889651    -0.20100
C2754       C  0.84988389  0.90366241  0.93276580    -0.06700
C2755       C  0.86298826  0.92802499  0.91392732     0.14200
C2756       C  0.87670263  0.91468495  0.89044554    -0.20200
C2757       C  0.87923870  0.87757289  0.88575419    -0.06700
C2758       C  0.86966820  0.85325611  0.90594131     0.14100
C2759       C  0.87619830  0.81337999  0.90433120    -0.23500
H2760       H  0.84473703  0.84804890  0.94369760     0.15400
H2761       H  0.88455571  0.93348794  0.87530534     0.15500
C2762       C  0.86231335  0.96813090  0.91841551    -0.23500
H2763       H  0.89132229  0.80468077  0.92184289     0.05700
H2764       H  0.89154208  0.80554192  0.88683097     0.08900
H2765       H  0.85101029  0.79878804  0.90404070     0.08900
H2766       H  0.87614858  0.97458918  0.93701203     0.08900
H2767       H  0.83524930  0.97821620  0.91958411     0.08900
H2768       H  0.87535253  0.98290589  0.90221793     0.05700
C2769       C  0.64521607  0.65789549  0.61090594    -0.20100
C2770       C  0.64313092  0.62022688  0.61347530    -0.06700
C2771       C  0.62656133  0.60031427  0.59325349     0.14200
C2772       C  0.60851863  0.61865899  0.57337199    -0.20200
C2773       C  0.60984152  0.65627812  0.57134375    -0.06700
C2774       C  0.62996875  0.67595403  0.58963230     0.14100
C2775       C  0.63557470  0.71593462  0.58680242    -0.23500
H2776       H  0.65783210  0.67370629  0.62604830     0.15400
H2777       H  0.59397623  0.60340040  0.55888037     0.15500
C2778       C  0.62836605  0.55991656  0.59141795    -0.23500
H2779       H  0.65357215  0.72649120  0.60208377     0.05700
H2780       H  0.61074084  0.73076801  0.58873366     0.08900
H2781       H  0.64713602  0.72175637  0.56727222     0.08900
H2782       H  0.60199381  0.54829991  0.59401926     0.08900
H2783       H  0.64633840  0.54797263  0.60607453     0.08900
H2784       H  0.63832119  0.55212521  0.57172885     0.05700
C2785       C  0.95787559  0.83351451  0.59767108    -0.20100
C2786       C  0.93586270  0.81276486  0.61386395    -0.06700
C2787       C  0.93215308  0.77540710  0.60786378     0.14200
C2788       C  0.94915719  0.76110644  0.58581306    -0.20200
C2789       C  0.97332502  0.78120321  0.57151547    -0.06700
C2790       C  0.97813584  0.81783147  0.57775647     0.14100
C2791       C  0.50474688  0.84061317  0.56366420    -0.23500
H2792       H  0.96083166  0.86197570  0.60148503     0.15400
H2793       H  0.94557207  0.73302739  0.58076141     0.15500
C2794       C  0.91348504  0.74892781  0.62539668    -0.23500
H2795       H  0.50570906  0.86837113  0.57166868     0.05700
H2796       H  0.49915133  0.84262995  0.54234919     0.08900
H2797       H  0.53080165  0.82828685  0.56646294     0.08900
H2798       H  0.88495882  0.75105651  0.62276176     0.08900
H2799       H  0.92109027  0.75296641  0.64626301     0.08900
H2800       H  0.92031663  0.72072594  0.62040298     0.05700
C2801       C  0.58528518  0.80765143  0.91568677    -0.20100
C2802       C  0.60463479  0.78129374  0.92881021    -0.06700
C2803       C  0.63952325  0.77547590  0.92109475     0.14200
C2804       C  0.65386536  0.79664193  0.90098839    -0.20200
C2805       C  0.63313454  0.81953349  0.88525054    -0.06700
C2806       C  0.59758748  0.82425222  0.89274898     0.14100
C2807       C  0.57066196  0.84306988  0.87599216    -0.23500
H2808       H  0.55878587  0.81263153  0.92202347     0.15400
H2809       H  0.68121569  0.79319505  0.89663387     0.15500
C2810       C  0.66207737  0.74633648  0.93272657    -0.23500
H2811       H  0.54378961  0.83569720  0.88194823     0.05700
H2812       H  0.57319025  0.83498492  0.85506541     0.08900
H2813       H  0.57253924  0.87258052  0.87844634     0.08900
H2814       H  0.64819308  0.72949276  0.94726574     0.08900
H2815       H  0.68509076  0.75858434  0.94245717     0.08900
H2816       H  0.67121834  0.72824242  0.91679317     0.05700
C2817       C  0.92116492  0.63503118  0.90367789    -0.20100
C2818       C  0.94201429  0.61863020  0.88433419    -0.06700
C2819       C  0.97886907  0.61998401  0.88726554     0.14200
C2820       C  0.99316061  0.63517204  0.91000988    -0.20200
C2821       C  0.97241845  0.65265902  0.92862019    -0.06700
C2822       C  0.93594332  0.65346701  0.92508919     0.14100
C2823       C  0.91276009  0.67563840  0.94266063    -0.23500
H2824       H  0.89313651  0.63494097  0.90135555     0.15400
H2825       H  0.52119462  0.63555162  0.91255422     0.15500
C2826       C  0.00391737  0.60916216  0.86576666    -0.23500
H2827       H  0.88526571  0.67504943  0.93590465     0.05700
H2828       H  0.92158427  0.70404659  0.94250644     0.08900
H2829       H  0.91328241  0.66542091  0.96309025     0.08900
H2830       H  0.99550419  0.62059216  0.84661458     0.08900
H2831       H  0.00622861  0.57957241  0.86449827     0.08900
H2832       H  0.53059220  0.61946618  0.86963391     0.05700
C2833       C  0.85394598  0.57178422  0.59981214    -0.20100
C2834       C  0.87343349  0.55004005  0.61709971    -0.06700
C2835       C  0.88049469  0.51393828  0.60948034     0.14200
C2836       C  0.87141073  0.50252268  0.58416967    -0.20200
C2837       C  0.84851189  0.52269672  0.56862461    -0.06700
C2838       C  0.83942440  0.55781877  0.57665771     0.14100
C2839       C  0.81351391  0.58080574  0.56203962    -0.23500
H2840       H  0.84852777  0.59950989  0.60480838     0.15400
H2841       H  0.87769840  0.97525337  0.57820639     0.15500
C2842       C  0.89310134  0.48506453  0.62811946    -0.23500
H2843       H  0.79180598  0.58804037  0.57542042     0.05700
H2844       H  0.80203274  0.56719886  0.54470966     0.08900
H2845       H  0.82640310  0.60583664  0.55527374     0.08900
H2846       H  0.89166686  0.49308129  0.64905279     0.08900
H2847       H  0.92008273  0.47707569  0.62299926     0.08900
H2848       H  0.87607893  0.96103027  0.62640210     0.05700
C2849       C  0.70515493  0.86895611  0.56830123    -0.20100
C2850       C  0.70846526  0.90641767  0.56594346    -0.06700
C2851       C  0.69501571  0.92870211  0.58597759     0.14200
C2852       C  0.68408509  0.91316964  0.60953738    -0.20200
C2853       C  0.68363475  0.87566509  0.61305435    -0.06700
C2854       C  0.69174644  0.85327228  0.59135498     0.14100
C2855       C  0.68510057  0.81332948  0.59185886    -0.23500
H2856       H  0.71425335  0.85191507  0.55244620     0.15400
H2857       H  0.67663636  0.93079465  0.62554990     0.15500
C2858       C  0.69312947  0.96904565  0.58346088    -0.23500
H2859       H  0.68968893  0.80095097  0.57228322     0.05700
H2860       H  0.65758153  0.80816321  0.59729667     0.08900
H2861       H  0.70251935  0.79964793  0.60599852     0.08900
H2862       H  0.70131477  0.97871752  0.56380055     0.08900
H2863       H  0.70995216  0.98178485  0.59859857     0.08900
H2864       H  0.66586903  0.97799159  0.58652254     0.05700
C2865       C  0.68210028  0.52650042  0.07291930    -0.20100
C2866       C  0.71829932  0.52218997  0.07119438    -0.06700
C2867       C  0.73988437  0.53840063  0.09036311     0.14200
C2868       C  0.72464978  0.55660814  0.11152391    -0.20200
C2869       C  0.68834481  0.56049876  0.11368037    -0.06700
C2870       C  0.66690008  0.54636105  0.09341327     0.14100
C2871       C  0.62817360  0.55253608  0.09221069    -0.23500
H2872       H  0.66556354  0.01470867  0.05789743     0.15400
H2873       H  0.74138188  0.56696894  0.12693297     0.15500
C2874       C  0.77906605  0.53704034  0.08849174    -0.23500
H2875       H  0.62120936  0.56422842  0.07280901     0.05700
H2876       H  0.61887641  0.57164484  0.10735756     0.08900
H2877       H  0.61432458  0.52655528  0.09455930     0.08900
H2878       H  0.78753404  0.54798844  0.06923140     0.08900
H2879       H  0.78856192  0.50907937  0.09057929     0.08900
H2880       H  0.79168680  0.55322101  0.10420079     0.05700
C2881       C  0.64958927  0.64245787  0.40131963    -0.20100
C2882       C  0.62815821  0.62198090  0.38444909    -0.06700
C2883       C  0.59313564  0.61564850  0.39238723     0.14200
C2884       C  0.58261122  0.62530493  0.41775769    -0.20200
C2885       C  0.60268742  0.64867985  0.43314311    -0.06700
C2886       C  0.63645083  0.65802813  0.42450997     0.14100
C2887       C  0.65774203  0.68621635  0.43852941    -0.23500
H2888       H  0.67628004  0.64785915  0.39588359     0.15400
H2889       H  0.55613383  0.61955179  0.42382458     0.15500
C2890       C  0.56444070  0.60403844  0.37384693    -0.23500
H2891       H  0.68241644  0.69193913  0.42800181     0.05700
H2892       H  0.66464504  0.67732166  0.45863263     0.08900
H2893       H  0.64274867  0.71167488  0.43968705     0.08900
H2894       H  0.55628354  0.57611992  0.37841377     0.08900
H2895       H  0.57169411  0.60644939  0.35286129     0.08900
H2896       H  0.54155796  0.62199354  0.37626051     0.05700
C2897       C  0.83341564  0.52731486  0.40956965    -0.20100
C2898       C  0.85557463  0.51529798  0.42968077    -0.06700
C2899       C  0.89189531  0.52039058  0.42690234     0.14200
C2900       C  0.90462233  0.53941910  0.40500308    -0.20200
C2901       C  0.88237335  0.55124700  0.38473091    -0.06700
C2902       C  0.84624168  0.54361696  0.38673134     0.14100
C2903       C  0.82111150  0.54941019  0.36422263    -0.23500
H2904       H  0.80568287  0.52252885  0.41134119     0.15400
H2905       H  0.93240493  0.54381497  0.40325684     0.15500
C2906       C  0.91804535  0.50468713  0.44578644    -0.23500
H2907       H  0.79569570  0.53613573  0.36791527     0.05700
H2908       H  0.83184301  0.53770276  0.34585422     0.08900
H2909       H  0.81552399  0.57832403  0.36144686     0.08900
H2910       H  0.90591185  0.98831985  0.46145974     0.08900
H2911       H  0.93322210  0.52665770  0.45511705     0.08900
H2912       H  0.93616942  0.48687778  0.43487382     0.05700
C2913       C  0.62137437  0.82155867  0.09663169    -0.20100
C2914       C  0.63729159  0.79811375  0.11476830    -0.06700
C2915       C  0.64017208  0.76100766  0.10813404     0.14200
C2916       C  0.62816841  0.74919063  0.08358978    -0.20200
C2917       C  0.60993888  0.77212199  0.06666446    -0.06700
C2918       C  0.60631253  0.80875360  0.07327063     0.14100
C2919       C  0.58463016  0.83382999  0.05670593    -0.23500
H2920       H  0.61915677  0.84986151  0.10132206     0.15400
H2921       H  0.62992632  0.72091290  0.07857489     0.15500
C2922       C  0.65184755  0.73254080  0.12745370    -0.23500
H2923       H  0.58313971  0.86111620  0.06549135     0.05700
H2924       H  0.55771283  0.82323392  0.05499425     0.08900
H2925       H  0.59600816  0.83655709  0.03680536     0.08900
H2926       H  0.63975125  0.73711306  0.14698234     0.08900
H2927       H  0.68056604  0.73194666  0.12909098     0.08900
H2928       H  0.64387032  0.70522878  0.12098045     0.05700
C2929       C  0.93488845  0.65606425  0.10472495    -0.20100
C2930       C  0.94301427  0.62054808  0.11225179    -0.06700
C2931       C  0.96220859  0.59895610  0.09433401     0.14200
C2932       C  0.97846212  0.61527842  0.07274018    -0.20200
C2933       C  0.97200266  0.65130716  0.06640069    -0.06700
C2934       C  0.94758432  0.67090802  0.08132926     0.14100
C2935       C  0.93544077  0.70773665  0.07290784    -0.23500
H2936       H  0.91965009  0.67312707  0.11750552     0.15400
H2937       H  0.49582499  0.59959728  0.06044141     0.15500
C2938       C  0.96482256  0.55863819  0.09647164    -0.23500
H2939       H  0.91524915  0.71853573  0.08636801     0.05700
H2940       H  0.92396396  0.70607773  0.05288886     0.08900
H2941       H  0.95726702  0.72714242  0.07263872     0.08900
H2942       H  0.94733653  0.54739468  0.11168808     0.08900
H2943       H  0.99211514  0.55072383  0.10071484     0.08900
H2944       H  0.45679955  0.54627434  0.07749836     0.05700
C2945       C  0.71178559  0.91857514  0.40801557    -0.20100
C2946       C  0.72218531  0.89613315  0.42869955    -0.06700
C2947       C  0.71600062  0.85878459  0.42698320     0.14200
C2948       C  0.69867938  0.84496729  0.40482880    -0.20200
C2949       C  0.68861662  0.86734158  0.38389921    -0.06700
C2950       C  0.69583619  0.90470631  0.38538356     0.14100
C2951       C  0.68928526  0.92991320  0.36262447    -0.23500
H2952       H  0.71738756  0.94708731  0.40926345     0.15400
H2953       H  0.69408231  0.81629861  0.40334883     0.15500
C2954       C  0.72941690  0.83323060  0.44763626    -0.23500
H2955       H  0.70017844  0.95708391  0.36640175     0.05700
H2956       H  0.66101594  0.93339577  0.35925719     0.08900
H2957       H  0.70181598  0.91932419  0.34454981     0.08900
H2958       H  0.71686585  0.83857947  0.46683109     0.08900
H2959       H  0.75801663  0.83639385  0.44971001     0.08900
H2960       H  0.72399563  0.80480771  0.44236716     0.05700
C2961       C  0.87131342  0.84414190  0.09471036    -0.20100
C2962       C  0.88185311  0.86703872  0.11524391    -0.06700
C2963       C  0.87264280  0.90393721  0.11404455     0.14200
C2964       C  0.85530140  0.91711477  0.09176351    -0.20200
C2965       C  0.84481343  0.89431624  0.07125547    -0.06700
C2966       C  0.85223646  0.85713432  0.07303670     0.14100
C2967       C  0.83834994  0.83076633  0.05309453    -0.23500
H2968       H  0.87716442  0.81570638  0.09605945     0.15400
H2969       H  0.84873614  0.94541852  0.09068295     0.15500
C2970       C  0.87850444  0.92926377  0.13685093    -0.23500
H2971       H  0.84455009  0.80260377  0.05860575     0.05700
H2972       H  0.84986554  0.83570398  0.03349519     0.08900
H2973       H  0.80961757  0.83329898  0.05176685     0.08900
H2974       H  0.90659638  0.93461463  0.13965238     0.08900
H2975       H  0.86736004  0.91763687  0.15509705     0.08900
H2976       H  0.86575416  0.95567375  0.13354076     0.05700
C2977       C  0.92748976  0.79130693  0.40298675    -0.20100
C2978       C  0.95085154  0.80637834  0.38474173    -0.06700
C2979       C  0.98659121  0.80927189  0.39178744     0.14200
C2980       C  0.99716352  0.79828958  0.41683839    -0.20200
C2981       C  0.97459258  0.77960229  0.43356880    -0.06700
C2982       C  0.93918654  0.77605603  0.42658858     0.14100
C2983       C  0.91348911  0.75468935  0.44257083    -0.23500
H2984       H  0.90009432  0.78929044  0.39812812     0.15400
H2985       H  0.52325424  0.80274806  0.42341539     0.15500
C2986       C  0.01487376  0.81915210  0.37244683    -0.23500
H2987       H  0.90244037  0.73284806  0.43022859     0.05700
H2988       H  0.89202852  0.77253260  0.44911340     0.08900
H2989       H  0.92521183  0.74200683  0.46016607     0.08900
H2990       H  0.01683923  0.84869319  0.37028952     0.08900
H2991       H  0.01010840  0.80614327  0.35311584     0.08900
H2992       H  0.54025497  0.81247372  0.38052819     0.05700
loop_ 
_geom_bond_atom_site_label_1 
_geom_bond_atom_site_label_2 
_geom_bond_distance 
_geom_bond_site_symmetry_2 
_ccdc_geom_bond_type 
C1            C2   1.400       .  A
C1            C6   1.409       .  A
C1          C734   1.489       .  S
C2            C3   1.397       .  A
C2            H7   1.080       .  S
C3            C4   1.397       .  A
C3           C37   1.469       .  S
C4            C5   1.402       .  A
C4            H8   1.083       .  S
C5            C6   1.404       .  A
C5          C156   1.473       .  S
C6            H9   1.082       .  S
C10          C11   1.408       .  A
C10          C15   1.407       .  A
C10         C718   1.491       .  S
C11          C12   1.403       .  A
C11          H16   1.082       .  S
C12          C13   1.401       .  A
C12          C67   1.471       .  S
C13          C14   1.400       .  A
C13          H17   1.085       .  S
C14          C15   1.403       .  A
C14         C126   1.471       .  S
C15          H18   1.084       .  S
C19          C20   1.405       .  A
C19          C24   1.404       .  A
C19         C705   1.486       .  S
C20          C21   1.401       .  A
C20          H25   1.084       .  S
C21          C22   1.402       .  A
C21         C166   1.471       .  S
C22          C23   1.404       .  A
C22          H26   1.084       .  S
C23          C24   1.402       .  A
C23          C87   1.471       .  S
C24          H27   1.082       .  S
C28          C29   1.406       .  A
C28          C33   1.408       .  A
C28         C686   1.501       .  S
C29          C30   1.404       .  A
C29          H34   1.081       .  S
C30          C31   1.401       .  A
C30         C176   1.477       .  S
C31          C32   1.406       .  A
C31          H35   1.084       .  S
C32          C33   1.404       .  A
C32          C77   1.477       .  S
C33          H36   1.080       .  S
C37          C74   1.458       .  S
C37        N1551   1.349       .  A
N38          N55   1.321       .  A
N38        N1556   1.319       .  A
N38         Co75   2.074   1_655  S
C39        C1573   1.465   1_455  S
C39          H84   1.081       .  S
C39         N812   1.341       .  A
H40          C81   1.081   1_455  S
C41          C45   1.458       .  S
C41          H70   1.080       .  S
C41          N65   1.331       .  A
Co42         N60   2.075       .  S
Co42         N50   2.079       .  S
Co42         N82   2.073       .  S
Co42         N58   2.080       .  S
Co42      Cl1582   2.422       .  S
N43          C81   1.345   1_455  A
N43        N1546   1.320   1_455  A
N43         Co44   2.091       .  S
Co44         N47   2.089       .  S
Co44         N64   2.083       .  S
Co44         N51   2.090       .  S
Co44        Cl86   2.478       .  S
C45          C92   1.481       .  S
C45          N83   1.355       .  A
N46          N53   1.319       .  A
N46          N76   1.322       .  A
N46         Co79   2.077       .  S
N47          N65   1.318       .  A
N47          N83   1.329       .  A
N48          C77   1.349       .  A
N48         N806   1.323       .  A
H49          C74   1.081       .  S
N50          N71   1.321       .  A
N50        N1539   1.320       .  A
N51          N69   1.320       .  A
N51         N804   1.325       .  A
C52          C80   1.456       .  S
C52         C121   1.470       .  S
C52          N56   1.351       .  A
N53          C68   1.343       .  A
N53         Co75   2.091       .  S
C54          C57   1.453       .  S
C54          H88   1.082       .  S
C54         N830   1.334       .  A
N55        C1533   1.349       .  A
N56         N799   1.325   1_545  A
C57         C103   1.471       .  S
C57        N1574   1.353       .  A
N58         N796   1.323       .  A
N58        N1560   1.319       .  A
N59         C833   1.341       .  A
N59          N61   1.320       .  A
N59         Co75   2.084       .  S
N60          C74   1.339       .  A
N60        N1534   1.319       .  A
N61         N837   1.323       .  A
N61         Co79   2.077       .  S
H62          C85   1.082       .  S
H63          C80   1.082       .  S
N64         C787   1.341       .  A
N64        N1554   1.319   1_455  A
N65         Co79   2.071       .  S
N66         N826   1.328       .  A
N66        N1578   1.321       .  A
N66         Co75   2.095   1_655  S
C67        C1577   1.464       .  S
C67          N71   1.347       .  A
C68          C87   1.466       .  S
C68          H72   1.082       .  S
N69         C828   1.338       .  A
N69         Co79   2.077       .  S
C73          C85   1.464       .  S
C73         C110   1.475       .  S
C73          N89   1.347       .  A
Co75        Cl86   2.474       .  S
N76          C87   1.347       .  A
C77        C1535   1.465       .  S
N78        C1553   1.353       .  A
N78         N814   1.328   1_545  A
Co79        Cl86   2.421       .  S
C80         N817   1.338   1_545  A
C81        C1563   1.464       .  S
N82         C802   1.334       .  A
N82        N1562   1.321       .  A
C85         N807   1.341   1_545  A
Cl86      Co1538   2.422   1_455  S
N89         N809   1.323   1_545  A
C90          C91   1.416       .  A
C90          C95   1.404       .  A
C90         C670   1.495       .  S
C91          C92   1.406       .  A
C91          H96   1.083       .  S
C92          C93   1.401       .  A
C93          C94   1.394       .  A
C93          H97   1.079       .  S
C94          C95   1.396       .  A
C94         C146   1.470       .  S
C95          H98   1.079       .  S
C99         C100   1.410       .  A
C99         C104   1.412       .  A
C99         C657   1.496       .  S
C100        C101   1.402       .  A
C100        H105   1.081       .  S
C101        C102   1.396       .  A
C101        C134   1.472       .  S
C102        C103   1.399       .  A
C102        H106   1.085       .  S
C103        C104   1.405       .  A
C104        H107   1.084       .  S
C108        C109   1.407       .  A
C108        C113   1.417       .  A
C108        C638   1.509       .  S
C109        C110   1.397       .  A
C109        H114   1.080       .  S
C110        C111   1.398       .  A
C111        C112   1.402       .  A
C111        H115   1.082       .  S
C112        C113   1.410       .  A
C112        C141   1.484       .  S
C113        H116   1.081       .  S
C117        C118   1.410       .  A
C117        C122   1.407       .  A
C117        C625   1.493       .  S
C118        C119   1.403       .  A
C118        H123   1.084       .  S
C119        C120   1.401       .  A
C119        C162   1.472       .  S
C120        C121   1.400       .  A
C120        H124   1.085       .  S
C121        C122   1.401       .  A
C122        H125   1.083       .  S
C126        C163   1.456       .  S
C126        N144   1.352       .  A
N127        N144   1.326       .  A
N127        N149   1.320       .  A
N127       Co164   2.090       .  S
C128        C166   1.461       .  S
C128        H173   1.082       .  S
C128        N153   1.342       .  A
H129        C170   1.081       .  S
C130        C134   1.458       .  S
C130        H159   1.082       .  S
C130        N154   1.338       .  A
Co131       N149   2.079       .  S
Co131       N139   2.077       .  S
Co131       N171   2.076       .  S
Co131       N147   2.083       .  S
Co131      Cl175   2.430       .  S
N132        C170   1.342       .  A
N132        N139   1.319       .  A
N132       Co133   2.079       .  S
Co133       N136   2.087       .  S
Co133       N153   2.088       .  S
Co133       N140   2.083       .  S
Co133      Cl175   2.471       .  S
C134        N172   1.350       .  A
N135        N142   1.320       .  A
N135        N165   1.329       .  A
N135       Co168   2.100       .  S
N136        N154   1.321       .  A
N136        N172   1.327       .  A
N137        C166   1.348       .  A
N137        N147   1.324       .  A
H138        C163   1.082       .  S
N139        N160   1.321       .  A
N140        N158   1.320       .  A
N140        N145   1.326       .  A
C141        C169   1.464       .  S
C141        N145   1.352       .  A
N142        C157   1.335       .  A
N142       Co164   2.069       .  S
C143        C146   1.459       .  S
C143        H177   1.081       .  S
C143        N171   1.337       .  A
C146        N167   1.348       .  A
N147        N153   1.320       .  A
N148        C174   1.344       .  A
N148        N150   1.320       .  A
N148       Co164   2.088       .  S
N149        C163   1.338       .  A
N150        N178   1.323       .  A
N150       Co168   2.086       .  S
H151        C174   1.082       .  S
H152        C169   1.081       .  S
N154       Co168   2.084       .  S
N155        N167   1.322       .  A
N155        N171   1.319       .  A
N155       Co164   2.070       .  S
C156        C170   1.462       .  S
C156        N160   1.348       .  A
C157        C176   1.456       .  S
C157        H161   1.081       .  S
N158        C169   1.340       .  A
N158       Co168   2.093       .  S
C162        C174   1.462       .  S
C162        N178   1.349       .  A
Co164      Cl175   2.466       .  S
N165        C176   1.354       .  A
Co168      Cl175   2.433       .  S
N179        C184   1.355       .  A
N179        C183   1.353       .  A
N179        H211   1.037       .  S
N180        C935   1.350       .  A
N180        C936   1.352       .  A
N181        C186   1.353       .  A
N181        C185   1.352       .  A
N181        H212   1.039       .  S
N182        C189   1.349       .  A
N182        C190   1.348       .  A
C183        C191   1.392       .  A
C183        C947   1.421       .  A
C184        C200   1.416       .  A
C184        C192   1.384       .  A
C185        C193   1.386       .  A
C185        C950   1.415       .  A
C186        C201   1.414       .  A
C186        C194   1.387       .  A
C187        C199   1.415       .  A
C187        C195   1.387       .  A
C187        N928   1.350   1_545  A
C188        C202   1.414   1_545  A
C188        C196   1.386       .  A
C188        N928   1.352   1_545  A
C189        C197   1.384       .  A
C189        C200   1.406       .  A
C190        C198   1.387       .  A
C190        C201   1.409       .  A
C191        C192   1.367       .  A
C191        H203   1.079       .  S
C192        H204   1.082       .  S
C193        C194   1.376       .  A
C193        H205   1.083       .  S
C194        H206   1.082       .  S
C195        C196   1.376       .  A
C195        H207   1.082       .  S
C196        H208   1.082       .  S
C197        C198   1.376       .  A
C197        H209   1.082       .  S
C198        H210   1.082       .  S
C199        C931   1.421   1_545  A
C199        C593   1.488       .  S
C200        C606   1.491       .  S
C201        C702   1.488       .  S
C202        C933   1.415       .  A
C202        C654   1.498   1_565  S
N213        C218   1.355       .  A
N213        C217   1.352       .  A
N213        H245   1.030       .  S
N214        C221   1.352   1_556  A
N214        C222   1.352       .  A
N215        C220   1.355       .  A
N215        C219   1.357       .  A
N215        H246   1.033       .  S
N216        C223   1.351   1_556  A
N216        C224   1.349       .  A
C217        C225   1.389       .  A
C217        C233   1.421       .  A
C218        C226   1.388       .  A
C218       C1730   1.421   1_455  A
C219        C227   1.392       .  A
C219        C236   1.430       .  A
C220        C228   1.385       .  A
C220       C1731   1.421   1_455  A
C221        C233   1.416       .  A
C221        C229   1.385       .  A
C222        C236   1.420       .  A
C222        C230   1.388       .  A
C223        C231   1.386       .  A
C223        C234   1.414       .  A
C224        C232   1.386       .  A
C224        C235   1.413       .  A
C225        C226   1.367       .  A
C225        H237   1.082       .  S
C226        H238   1.081       .  S
C227        C228   1.370       .  A
C227        H239   1.080       .  S
C228        H240   1.082   1_455  S
C229        C230   1.372   1_554  A
C229        H241   1.082       .  S
C230        H242   1.081       .  S
C231        C232   1.371   1_554  A
C231        H243   1.081       .  S
C232        H244   1.082       .  S
C233        C673   1.489       .  S
C234       C1714   1.421       .  A
C234        C689   1.490       .  S
C235       C1716   1.421       .  A
C235        C577   1.492       .  S
C236        C558   1.501       .  S
N247        C252   1.355       .  A
N247        C251   1.352       .  A
N247        H279   1.031       .  S
N248       C1751   1.351       .  A
N248       C1752   1.350       .  A
N249        C254   1.355       .  A
N249        C253   1.358       .  A
N249        H280   1.034       .  S
N250        C257   1.353       .  A
N250        C258   1.351       .  A
C251        C259   1.386       .  A
C251       C1763   1.417   1_455  A
C252        C268   1.424       .  A
C252        C260   1.391       .  A
C253        C261   1.389       .  A
C253       C1766   1.426   1_455  A
C254        C269   1.422       .  A
C254        C262   1.387       .  A
C255        C267   1.411       .  A
C255        C263   1.384       .  A
C255       N1744   1.351       .  A
C256        C270   1.416       .  A
C256        C264   1.388       .  A
C256       N1744   1.350       .  A
C257        C265   1.385       .  A
C257        C268   1.417       .  A
C258        C266   1.388       .  A
C258        C269   1.418       .  A
C259        C260   1.364       .  A
C259        H271   1.083   1_455  S
C260        H272   1.079       .  S
C261        C262   1.372       .  A
C261        H273   1.080       .  S
C262        H274   1.082       .  S
C263        C264   1.370       .  A
C263        H275   1.082       .  S
C264        H276   1.082       .  S
C265        C266   1.371       .  A
C265        H277   1.082       .  S
C266        H278   1.082       .  S
C267       C1747   1.416       .  A
C267        C737   1.488       .  S
C268        C641   1.497       .  S
C269        C529   1.494       .  S
C270       C1749   1.426       .  A
C270        C545   1.495       .  S
N281        C286   1.354       .  A
N281        C285   1.350       .  A
N281        H313   1.038       .  S
N282        C289   1.348   1_554  A
N282        C290   1.349       .  A
N283        C288   1.351       .  A
N283        C287   1.354       .  A
N283        H314   1.040       .  S
N284       C1039   1.352   1_554  A
N284       C1040   1.350       .  A
C285        C293   1.384       .  A
C285        C301   1.410       .  A
C286        C294   1.391       .  A
C286       C1050   1.420       .  A
C287        C295   1.387       .  A
C287        C304   1.417       .  A
C288        C296   1.387       .  A
C288       C1051   1.414       .  A
C289        C301   1.408       .  A
C289        C297   1.385       .  A
C290        C304   1.411       .  A
C290        C298   1.386       .  A
C291        C299   1.387       .  A
C291        C302   1.416       .  A
C291       N1032   1.352   1_546  A
C292        C300   1.386       .  A
C292        C303   1.414       .  A
C292       N1032   1.350   1_545  A
C293        C294   1.369       .  A
C293        H305   1.083       .  S
C294        H306   1.078       .  S
C295        C296   1.378       .  A
C295        H307   1.082       .  S
C296        H308   1.082       .  S
C297        C298   1.377   1_556  A
C297        H309   1.082       .  S
C298        H310   1.082       .  S
C299        C300   1.376   1_556  A
C299        H311   1.081       .  S
C300        H312   1.082       .  S
C301        C510   1.484       .  S
C302       C1034   1.420   1_545  A
C302        C497   1.494       .  S
C303       C1036   1.414   1_545  A
C303        C622   1.492       .  S
C304        C721   1.496       .  S
C315        C316   1.406       .  A
C315        C320   1.402       .  A
C315        C513   1.484       .  S
C316        C317   1.405       .  A
C316        H321   1.083       .  S
C317        C318   1.405       .  A
C317        C369   1.478       .  S
C318        C319   1.401       .  A
C318        H322   1.082       .  S
C319        C320   1.398       .  A
C319        C470   1.473       .  S
C320        H323   1.083       .  S
C324        C325   1.411       .  A
C324        C329   1.406       .  A
C324        C574   1.494       .  S
C325        C326   1.403       .  A
C325        H330   1.083       .  S
C326        C327   1.397       .  A
C326        C389   1.467       .  S
C327        C328   1.396       .  A
C327        H331   1.085       .  S
C328        C329   1.400       .  A
C328        C448   1.468       .  S
C329        H332   1.080       .  S
C333        C334   1.408       .  A
C333        C338   1.415       .  A
C333        C494   1.507       .  S
C334        C335   1.399       .  A
C334        H339   1.081       .  S
C335        C336   1.397       .  A
C335        C455   1.474       .  S
C336        C337   1.403       .  A
C336        H340   1.083       .  S
C337        C338   1.408       .  A
C337        C405   1.481       .  S
C338        H341   1.080       .  S
C342        C343   1.410       .  A
C342        C347   1.414       .  A
C342        C561   1.512       .  S
C343        C344   1.404       .  A
C343        H348   1.075       .  S
C344        C345   1.401       .  A
C344        C480   1.474       .  S
C345        C346   1.399       .  A
C345        H349   1.084       .  S
C346        C347   1.400       .  A
C346        C419   1.470       .  S
C347        H350   1.081       .  S
C351        C352   1.408       .  A
C351        C356   1.409       .  A
C351        C526   1.493       .  S
C352        C353   1.402       .  A
C352        H357   1.083       .  S
C353        C354   1.402       .  A
C353        C384   1.472       .  S
C354        C355   1.399       .  A
C354        H358   1.084       .  S
C355        C356   1.401       .  A
C355        C476   1.470       .  S
C356        H359   1.083       .  S
C360        C361   1.408       .  A
C360        C365   1.399       .  A
C360        C590   1.496       .  S
C361        C362   1.408       .  A
C361        H366   1.080       .  S
C362        C363   1.404       .  A
C362        C409   1.478       .  S
C363        C364   1.402       .  A
C363        H367   1.084       .  S
C364        C365   1.397       .  A
C364        C490   1.470       .  S
C365        H368   1.081       .  S
C369        C406   1.459       .  S
C369        N387   1.353       .  A
N370        N387   1.326       .  A
N370        N392   1.321       .  A
N370       Co407   2.088       .  S
C371        C409   1.459       .  S
C371        H416   1.081       .  S
C371        N396   1.336       .  A
H372        C413   1.082       .  S
C373        C377   1.463       .  S
C373        H402   1.081       .  S
C373        N397   1.336       .  A
Co374       N392   2.082       .  S
Co374       N382   2.078       .  S
Co374       N414   2.072       .  S
Co374       N390   2.094       .  S
Co374      Cl418   2.422       .  S
N375        C413   1.345       .  A
N375        N382   1.319       .  A
N375       Co376   2.089       .  S
Co376       N379   2.081       .  S
Co376       N396   2.069       .  S
Co376       N383   2.090       .  S
Co376      Cl418   2.476       .  S
C377        C435   1.482       .  S
C377        N415   1.352       .  A
N378        N385   1.320       .  A
N378        N408   1.323       .  A
N378       Co411   2.070       .  S
N379        N397   1.319       .  A
N379        N415   1.328       .  A
N380        C409   1.353       .  A
N380        N390   1.326       .  A
H381        C406   1.081       .  S
N382        N403   1.321       .  A
N383        N401   1.317       .  A
N383        N388   1.326       .  A
C384        C412   1.456       .  S
C384        N388   1.354       .  A
N385        C400   1.343       .  A
N385       Co407   2.097       .  S
C386        C389   1.453       .  S
C386        H420   1.082       .  S
C386        N414   1.335       .  A
C389        N410   1.351       .  A
N390        N396   1.319       .  A
N391        C417   1.345       .  A
N391        N393   1.319       .  A
N391       Co407   2.086       .  S
N392        C406   1.337       .  A
N393        N421   1.322       .  A
N393       Co411   2.086       .  S
H394        C417   1.081       .  S
H395        C412   1.082       .  S
N397       Co411   2.088       .  S
N398        N410   1.327       .  A
N398        N414   1.320       .  A
N398       Co407   2.090       .  S
C399        C413   1.466       .  S
C399        C426   1.473       .  S
C399        N403   1.348       .  A
C400        C419   1.464       .  S
C400        H404   1.082       .  S
N401        C412   1.336       .  A
N401       Co411   2.068       .  S
C405        C417   1.465       .  S
C405        N421   1.350       .  A
Co407      Cl418   2.476       .  S
N408        C419   1.345       .  A
Co411      Cl418   2.421       .  S
C422        C423   1.416       .  A
C422        C427   1.410       .  A
C422        C542   1.509       .  S
C423        C424   1.403       .  A
C423        H428   1.082       .  S
C424        C425   1.397       .  A
C424        C440   1.474       .  S
C425        C426   1.400       .  A
C425        H429   1.085       .  S
C426        C427   1.402       .  A
C427        H430   1.076       .  S
C431        C432   1.404       .  A
C431        C436   1.414       .  A
C431        C609   1.490       .  S
C432        C433   1.395       .  A
C432        H437   1.084       .  S
C433        C434   1.396       .  A
C433        C460   1.468       .  S
C434        C435   1.400       .  A
C434        H438   1.080       .  S
C435        C436   1.409       .  A
C436        H439   1.081       .  S
C440        C477   1.456       .  S
C440        N458   1.353       .  A
N441        N458   1.327       .  A
N441        N463   1.322       .  A
N441      Co1974   2.098       .  S
C442        C480   1.464       .  S
C442        H487   1.082       .  S
C442        N467   1.343       .  A
H443        C484   1.081       .  S
C444        C448   1.459       .  S
C444        H473   1.082       .  S
C444        N468   1.337       .  A
Co445       N485   2.065       .  S
Co445       N461   2.088       .  S
Co445      N1959   2.084   1_455  S
Co445      N1949   2.076   1_455  S
Co445      Cl489   2.431       .  S
N446        C484   1.338       .  A
N446        N453   1.318       .  A
N446      Co1943   2.073       .  S
Co447       N467   2.085       .  S
Co447      N1942   2.073   1_455  S
Co447      N2694   2.080   1_455  S
Co447      N1202   2.074       .  S
Co447      Cl489   2.465       .  S
C448        N486   1.350       .  A
N449        N456   1.319       .  A
N449        N479   1.325       .  A
N449      Co1978   2.076       .  S
N450        N468   1.320       .  A
N450        N486   1.325       .  A
N450      Co2691   2.080   1_545  S
N451        C480   1.350       .  A
N451        N461   1.323       .  A
H452        C477   1.082       .  S
N453        N474   1.324       .  A
N453      Co1941   2.076       .  S
N454        N472   1.318       .  A
N454        N459   1.322       .  A
N454      Co1195   2.074   1_545  S
C455        C483   1.461       .  S
C455        N459   1.349       .  A
N456        C471   1.335       .  A
N456      Co2722   2.073   1_545  S
C457        C460   1.455       .  S
C457        H491   1.081       .  S
C457        N485   1.334       .  A
C460        N481   1.350       .  A
N461        N467   1.319       .  A
N462        C488   1.342       .  A
N462        N464   1.322       .  A
N462      Co1226   2.092   1_545  S
N463        C477   1.339       .  A
N463      Co1941   2.084       .  S
N464        N492   1.323       .  A
N464       Co482   2.084       .  S
H465        C488   1.082   1_565  S
H466        C483   1.081       .  S
N468      Co1978   2.084       .  S
N469        N481   1.323       .  A
N469        N485   1.318       .  A
N469       Co478   2.075       .  S
C470        C484   1.460       .  S
C470        N474   1.349       .  A
C471        C490   1.460       .  S
C471        H475   1.081   1_545  S
N472        C483   1.341       .  A
N472       Co482   2.079       .  S
C476        C488   1.460       .  S
C476        N492   1.348       .  A
Co478      N1937   2.098   1_455  S
Co478      N2700   2.073   1_455  S
Co478      N1210   2.093       .  S
Co478      Cl489   2.463       .  S
N479        C490   1.348       .  A
Co482      N1945   2.076   1_455  S
Co482      N1964   2.084   1_455  S
Co482     Cl1237   2.436   1_545  S
Cl489     Co1230   2.436       .  S
C493        C494   1.414       .  A
C493        C498   1.400       .  A
C493        H500   1.081       .  S
C494        C495   1.422       .  A
C495        C496   1.406       .  A
C495        C502   1.508       .  S
C496        C497   1.403       .  A
C496        H501   1.084       .  S
C497        C498   1.412       .  A
C498       C1247   1.509   1_545  S
C499       C1246   1.509       .  S
C499        H503   1.110       .  S
C499        H504   1.109       .  S
C499        H505   1.110       .  S
C502        H506   1.108       .  S
C502        H507   1.110       .  S
C502        H508   1.111       .  S
C509        C510   1.402       .  A
C509        C514   1.403       .  A
C509        H516   1.084       .  S
C510        C511   1.413       .  A
C511        C512   1.397       .  A
C511        C518   1.510       .  S
C512        C513   1.405       .  A
C512        H517   1.084       .  S
C513        C514   1.418       .  A
C514        C515   1.507       .  S
C515        H519   1.111       .  S
C515        H520   1.107       .  S
C515        H521   1.110       .  S
C518        H522   1.110       .  S
C518        H523   1.108       .  S
C518        H524   1.111       .  S
C525        C526   1.410       .  A
C525        C530   1.401       .  A
C525        H532   1.083       .  S
C526        C527   1.417       .  A
C527        C528   1.403       .  A
C527        C534   1.508       .  S
C528        C529   1.405       .  A
C528        H533   1.084       .  S
C529        C530   1.413       .  A
C530        C531   1.510       .  S
C531        H535   1.111       .  S
C531        H536   1.107       .  S
C531        H537   1.110       .  S
C534        H538   1.110       .  S
C534        H539   1.108       .  S
C534        H540   1.111       .  S
C541        C542   1.412       .  A
C541        C546   1.405       .  A
C541        H548   1.082       .  S
C542        C543   1.431       .  A
C543        C544   1.404       .  A
C543        C550   1.511       .  S
C544        C545   1.398       .  A
C544        H549   1.085       .  S
C545        C546   1.412       .  A
C546       C2043   1.509       .  S
C547       C2042   1.509   1_455  S
C547        H551   1.111       .  S
C547        H552   1.106       .  S
C547        H553   1.110       .  S
C550        H554   1.107       .  S
C550        H555   1.110       .  S
C550        H556   1.111       .  S
C557        C558   1.400       .  A
C557        C562   1.403       .  A
C557        H564   1.085       .  S
C558        C559   1.414       .  A
C559        C560   1.404       .  A
C559        C566   1.509       .  S
C560        C561   1.414       .  A
C560        H565   1.082       .  S
C561        C562   1.430       .  A
C562        C563   1.511       .  S
C563        H567   1.111       .  S
C563        H568   1.110       .  S
C563        H569   1.108       .  S
C566        H570   1.107       .  S
C566        H571   1.110       .  S
C566        H572   1.111       .  S
C573        C574   1.409       .  A
C573        C578   1.405       .  A
C573        H580   1.084       .  S
C574        C575   1.425       .  A
C575        C576   1.398       .  A
C575        C582   1.512       .  S
C576        C577   1.399       .  A
C576       H2077   1.085       .  S
C577        C578   1.413       .  A
C578        C579   1.508       .  S
C579        H583   1.111       .  S
C579        H584   1.110       .  S
C579        H585   1.106       .  S
H581       C2072   1.085   1_455  S
C582        H586   1.110       .  S
C582        H587   1.107       .  S
C582       H2084   1.111       .  S
H588       C2078   1.111       .  S
C589        C590   1.409       .  A
C589        C594   1.402       .  A
C589        H596   1.083       .  S
C590        C591   1.424       .  A
C591        C592   1.399       .  A
C591        C598   1.512   1_545  S
C592        C593   1.400       .  A
C592       H1345   1.085   1_545  S
C593        C594   1.413       .  A
C594        C595   1.508       .  S
C595        H599   1.111       .  S
C595        H600   1.107       .  S
C595        H601   1.110       .  S
H597       C1340   1.085       .  S
C598        H602   1.107       .  S
C598        H603   1.110       .  S
C598       H1352   1.111       .  S
H604       C1346   1.111       .  S
C605        C606   1.405       .  A
C605        C610   1.408       .  A
C605        H612   1.084       .  S
C606        C607   1.412       .  A
C607        C608   1.396       .  A
C607        C614   1.509       .  S
C608        C609   1.407       .  A
C608        H613   1.084       .  S
C609        C610   1.417       .  A
C610        C611   1.509       .  S
C611        H615   1.111       .  S
C611        H616   1.111       .  S
C611        H617   1.106       .  S
C614        H618   1.109       .  S
C614        H619   1.110       .  S
C614        H620   1.111       .  S
C621        C622   1.403       .  A
C621        C626   1.405       .  A
C621       H1376   1.084       .  S
C622        C623   1.414       .  A
C623        C624   1.400       .  A
C623        C630   1.510       .  S
C624        C625   1.407       .  A
C624        H629   1.083       .  S
C625        C626   1.419       .  A
C626        C627   1.507       .  S
C627        H631   1.111       .  S
C627        H632   1.108       .  S
C627        H633   1.110       .  S
H628       C1369   1.084       .  S
C630        H634   1.110       .  S
C630        H635   1.108       .  S
C630        H636   1.111       .  S
C637        C638   1.413       .  A
C637        C642   1.408       .  A
C637        H644   1.081       .  S
C638        C639   1.428       .  A
C639        C640   1.400       .  A
C639        C646   1.513       .  S
C640        C641   1.400       .  A
C640        H645   1.085       .  S
C641        C642   1.413       .  A
C642        C643   1.509       .  S
C643        H647   1.111       .  S
C643        H648   1.107       .  S
C643        H649   1.110       .  S
C646        H650   1.110       .  S
C646        H651   1.107       .  S
C646        H652   1.111       .  S
C653        C654   1.403       .  A
C653        C658   1.401       .  A
C653        H660   1.085       .  S
C654        C655   1.416       .  A
C655        C656   1.408       .  A
C655        C662   1.507       .  S
C656        C657   1.409       .  A
C656        H661   1.084       .  S
C657        C658   1.421       .  A
C658        C659   1.512       .  S
C659        H663   1.111       .  S
C659        H664   1.110       .  S
C659        H665   1.106       .  S
C662        H667   1.110       .  S
C662        H668   1.111   1_545  S
C662       H1414   1.107   1_545  S
H666       C1410   1.107       .  S
C669        C670   1.409       .  A
C669        C674   1.403       .  A
C669        H676   1.083       .  S
C670        C671   1.426       .  A
C671        C672   1.400       .  A
C671        C678   1.513       .  S
C672        C673   1.399       .  A
C672        H677   1.085       .  S
C673        C674   1.411       .  A
C674        C675   1.508       .  S
C675        H679   1.111       .  S
C675        H680   1.110       .  S
C675        H681   1.108       .  S
C678        H682   1.110       .  S
C678        H683   1.107       .  S
C678        H684   1.111       .  S
C685        C686   1.411       .  A
C685        C690   1.400       .  A
C685        H692   1.081       .  S
C686        C687   1.422       .  A
C687        C688   1.403       .  A
C687        C694   1.508       .  S
C688        C689   1.401       .  A
C688       H2189   1.084       .  S
C689        C690   1.411       .  A
C690        C691   1.510       .  S
C691        H695   1.111       .  S
C691        H696   1.110       .  S
C691        H697   1.107       .  S
H693       C2184   1.084       .  S
C694        H698   1.108       .  S
C694        H699   1.110       .  S
C694       H2196   1.111       .  S
H700       C2190   1.111       .  S
C701        C702   1.401       .  A
C701        C706   1.401       .  A
C701        H708   1.085       .  S
C702        C703   1.413       .  A
C703        C704   1.405       .  A
C703        C710   1.507       .  S
C704        C705   1.405       .  A
C704        H709   1.084       .  S
C705        C706   1.420       .  A
C706        C707   1.511       .  S
C707        H711   1.111       .  S
C707        H712   1.107       .  S
C707        H713   1.110       .  S
C710        H714   1.107       .  S
C710        H715   1.110       .  S
C710        H716   1.111       .  S
C717        C718   1.406       .  A
C717        C722   1.408       .  A
C717        H724   1.084       .  S
C718        C719   1.419       .  A
C719        C720   1.402       .  A
C719        C726   1.510       .  S
C720        C721   1.403       .  A
C720        H725   1.084       .  S
C721        C722   1.416       .  A
C722        C723   1.508       .  S
C723        H727   1.111       .  S
C723        H728   1.107       .  S
C723        H729   1.110       .  S
C726        H730   1.107       .  S
C726        H731   1.111       .  S
C726        H732   1.111       .  S
C733        C734   1.408       .  A
C733        C738   1.402       .  A
C733        H740   1.084       .  S
C734        C735   1.421       .  A
C735        C736   1.397       .  A
C735        C742   1.513       .  S
C736        C737   1.402       .  A
C736       H2237   1.085       .  S
C737        C738   1.413       .  A
C738        C739   1.507       .  S
C739        H743   1.111       .  S
C739        H744   1.110       .  S
C739        H745   1.107       .  S
H741       C2232   1.085   1_455  S
C742        H746   1.107       .  S
C742        H747   1.110       .  S
C742       H2244   1.111       .  S
H748       C2238   1.111       .  S
C749        C750   1.401       .  A
C749        C754   1.411       .  A
C749       C1482   1.493       .  S
C750        C751   1.397       .  A
C750        H755   1.079       .  S
C751        C752   1.397       .  A
C751        C785   1.468       .  S
C752        C753   1.401       .  A
C752        H756   1.083       .  S
C753        C754   1.403       .  A
C753        C904   1.473       .  S
C754        H757   1.081       .  S
C758        C759   1.408       .  A
C758        C763   1.407       .  A
C758       C1466   1.491       .  S
C759        C760   1.403       .  A
C759        H764   1.082       .  S
C760        C761   1.401       .  A
C760        C815   1.471       .  S
C761        C762   1.400       .  A
C761        H765   1.085       .  S
C762        C763   1.403       .  A
C762        C874   1.471       .  S
C763        H766   1.084       .  S
C767        C768   1.405       .  A
C767        C772   1.404       .  A
C767       C1453   1.486       .  S
C768        C769   1.401       .  A
C768        H773   1.084       .  S
C769        C770   1.402       .  A
C769        C914   1.471       .  S
C770        C771   1.405       .  A
C770        H774   1.084       .  S
C771        C772   1.402       .  A
C771        C835   1.471       .  S
C772        H775   1.082       .  S
C776        C777   1.406       .  A
C776        C781   1.408       .  A
C776       C1434   1.501       .  S
C777        C778   1.404       .  A
C777        H782   1.081       .  S
C778        C779   1.401       .  A
C778        C924   1.477       .  S
C779        C780   1.406       .  A
C779        H783   1.084       .  S
C780        C781   1.404       .  A
C780        C825   1.477       .  S
C781        H784   1.080       .  S
C785        C822   1.457       .  S
C785       N2299   1.349       .  A
N786        N803   1.321       .  A
N786       N2304   1.319       .  A
N786       Co823   2.075   1_655  S
C787       C2321   1.465   1_455  S
C787        H832   1.081       .  S
H788        C829   1.081   1_455  S
C789        C793   1.458       .  S
C789        H818   1.080       .  S
C789        N813   1.331       .  A
Co790       N808   2.074       .  S
Co790       N798   2.080       .  S
Co790       N830   2.073   1_565  S
Co790       N806   2.080   1_565  S
Co790     Cl2330   2.421       .  S
N791        C829   1.345   1_455  A
N791       N2294   1.320   1_455  A
N791       Co792   2.091       .  S
Co792       N795   2.089       .  S
Co792       N812   2.083   1_565  S
Co792       N799   2.090       .  S
Co792      Cl834   2.478       .  S
C793        C840   1.481       .  S
C793        N831   1.355       .  A
N794        N801   1.319       .  A
N794        N824   1.322       .  A
N794       Co827   2.077       .  S
N795        N813   1.318       .  A
N795        N831   1.329       .  A
N796        C825   1.349       .  A
H797        C822   1.081       .  S
N798       N2287   1.320       .  A
N798        N819   1.322       .  A
N799        N817   1.320       .  A
C800        C828   1.456       .  S
C800        C869   1.470       .  S
C800        N804   1.351       .  A
N801        C816   1.344       .  A
N801       Co823   2.091       .  S
C802        C805   1.453       .  S
C802        H836   1.082       .  S
N803       C2281   1.349       .  A
C805        C851   1.471       .  S
C805       N2322   1.353       .  A
N806       N2308   1.319       .  A
N807        N809   1.320       .  A
N807       Co823   2.084       .  S
N808        C822   1.339       .  A
N808       N2282   1.319       .  A
N809       Co827   2.078       .  S
H810        C833   1.082       .  S
H811        C828   1.082       .  S
N812       N2302   1.319   1_455  A
N813       Co827   2.071       .  S
N814       N2326   1.321   1_565  A
N814       Co823   2.095   1_655  S
C815       C2325   1.464       .  S
C815        N819   1.347       .  A
C816        C835   1.466       .  S
C816        H820   1.082       .  S
N817       Co827   2.077       .  S
C821        C833   1.463       .  S
C821        C858   1.474       .  S
C821        N837   1.347       .  A
Co823      Cl834   2.474       .  S
N824        C835   1.347       .  A
C825       C2283   1.465       .  S
N826       C2301   1.353       .  A
Co827      Cl834   2.421       .  S
C829       C2311   1.464       .  S
N830       N2310   1.321   1_545  A
Cl834     Co2286   2.421   1_455  S
C838        C839   1.416       .  A
C838        C843   1.404       .  A
C838       C1418   1.495       .  S
C839        C840   1.406       .  A
C839        H844   1.083       .  S
C840        C841   1.401       .  A
C841        C842   1.394       .  A
C841        H845   1.079       .  S
C842        C843   1.396       .  A
C842        C894   1.470       .  S
C843        H846   1.079       .  S
C847        C848   1.410       .  A
C847        C852   1.412       .  A
C847       C1405   1.496       .  S
C848        C849   1.402       .  A
C848        H853   1.081       .  S
C849        C850   1.396       .  A
C849        C882   1.471       .  S
C850        C851   1.398       .  A
C850        H854   1.085       .  S
C851        C852   1.405       .  A
C852        H855   1.084       .  S
C856        C857   1.406       .  A
C856        C861   1.416       .  A
C856       C1386   1.506       .  S
C857        C858   1.397       .  A
C857        H862   1.081       .  S
C858        C859   1.399       .  A
C859        C860   1.403       .  A
C859        H863   1.082       .  S
C860        C861   1.410       .  A
C860        C889   1.484       .  S
C861        H864   1.081       .  S
C865        C866   1.410       .  A
C865        C870   1.407       .  A
C865       C1373   1.493       .  S
C866        C867   1.403       .  A
C866        H871   1.084       .  S
C867        C868   1.401       .  A
C867        C910   1.471       .  S
C868        C869   1.400       .  A
C868        H872   1.085       .  S
C869        C870   1.401       .  A
C870        H873   1.083       .  S
C874        C911   1.456       .  S
C874        N892   1.352       .  A
N875        N892   1.327       .  A
N875        N897   1.320       .  A
N875       Co912   2.090       .  S
C876        C914   1.461       .  S
C876        H921   1.082       .  S
C876        N901   1.342       .  A
H877        C918   1.081       .  S
C878        C882   1.458       .  S
C878        H907   1.082       .  S
C878        N902   1.338       .  A
Co879       N897   2.078       .  S
Co879       N887   2.077       .  S
Co879       N919   2.076       .  S
Co879       N895   2.083       .  S
Co879      Cl923   2.430       .  S
N880        C918   1.342       .  A
N880        N887   1.319       .  A
N880       Co881   2.079       .  S
Co881       N884   2.086       .  S
Co881       N901   2.089       .  S
Co881       N888   2.084       .  S
Co881      Cl923   2.471       .  S
C882        N920   1.350       .  A
N883        N890   1.320       .  A
N883        N913   1.329       .  A
N883       Co916   2.100       .  S
N884        N902   1.320       .  A
N884        N920   1.327       .  A
N885        C914   1.348       .  A
N885        N895   1.324       .  A
H886        C911   1.082       .  S
N887        N908   1.321       .  A
N888        N906   1.320       .  A
N888        N893   1.327       .  A
C889        C917   1.464       .  S
C889        N893   1.352       .  A
N890        C905   1.335       .  A
N890       Co912   2.069       .  S
C891        C894   1.459       .  S
C891        H925   1.081       .  S
C891        N919   1.337       .  A
C894        N915   1.348       .  A
N895        N901   1.320       .  A
N896        C922   1.344       .  A
N896        N898   1.320       .  A
N896       Co912   2.087       .  S
N897        C911   1.338       .  A
N898        N926   1.323       .  A
N898       Co916   2.086       .  S
H899        C922   1.082       .  S
H900        C917   1.081       .  S
N902       Co916   2.083       .  S
N903        N915   1.322       .  A
N903        N919   1.319       .  A
N903       Co912   2.071       .  S
C904        C918   1.463       .  S
C904        N908   1.348       .  A
C905        C924   1.456       .  S
C905        H909   1.081       .  S
N906        C917   1.339       .  A
N906       Co916   2.093       .  S
C910        C922   1.462       .  S
C910        N926   1.349       .  A
Co912      Cl923   2.466       .  S
N913        C924   1.354       .  A
Co916      Cl923   2.433       .  S
N927        C932   1.355       .  A
N927        C931   1.353       .  A
N927        H959   1.037       .  S
N929        C934   1.353       .  A
N929        C933   1.353       .  A
N929        H960   1.039       .  S
N930        C937   1.349       .  A
N930        C938   1.348       .  A
C931        C939   1.392       .  A
C932        C948   1.416       .  A
C932        C940   1.384       .  A
C933        C941   1.386       .  A
C934        C949   1.414       .  A
C934        C942   1.387       .  A
C935        C947   1.415       .  A
C935        C943   1.387       .  A
C936        C950   1.414       .  A
C936        C944   1.386       .  A
C937        C945   1.384       .  A
C937        C948   1.406       .  A
C938        C946   1.387       .  A
C938        C949   1.409       .  A
C939        C940   1.367       .  A
C939        H951   1.079       .  S
C940        H952   1.082       .  S
C941        C942   1.376       .  A
C941        H953   1.083       .  S
C942        H954   1.082       .  S
C943        C944   1.376       .  A
C943        H955   1.082       .  S
C944        H956   1.082       .  S
C945        C946   1.376       .  A
C945        H957   1.082       .  S
C946        H958   1.082       .  S
C947       C1341   1.488       .  S
C948       C1354   1.491       .  S
C949       C1450   1.488       .  S
C950       C1402   1.498       .  S
N961        C966   1.355       .  A
N961        C965   1.352       .  A
N961        H993   1.030       .  S
N962        C969   1.352   1_556  A
N962        C970   1.352       .  A
N963        C968   1.355       .  A
N963        C967   1.357       .  A
N963        H994   1.033       .  S
N964        C971   1.351   1_556  A
N964        C972   1.349       .  A
C965        C973   1.389       .  A
C965        C981   1.421       .  A
C966       C2478   1.421   1_455  A
C966        C974   1.388       .  A
C967        C975   1.392       .  A
C967        C984   1.430       .  A
C968       C2479   1.421   1_455  A
C968        C976   1.385       .  A
C969        C981   1.416       .  A
C969        C977   1.385       .  A
C970        C984   1.420       .  A
C970        C978   1.388       .  A
C971        C979   1.386       .  A
C971        C982   1.414       .  A
C972        C980   1.386       .  A
C972        C983   1.413       .  A
C973        C974   1.367       .  A
C973        H985   1.082       .  S
C974        H986   1.081       .  S
C975        C976   1.370       .  A
C975        H987   1.080       .  S
C976        H988   1.082   1_455  S
C977        C978   1.372   1_554  A
C977        H989   1.082       .  S
C978        H990   1.081       .  S
C979        C980   1.371   1_554  A
C979        H991   1.081       .  S
C980        H992   1.082       .  S
C981       C1421   1.489       .  S
C982       C2462   1.421       .  A
C982       C1437   1.490       .  S
C983       C2464   1.421       .  A
C983       C1325   1.492       .  S
C984       C1306   1.501       .  S
N995       C1000   1.355       .  A
N995        C999   1.352       .  A
N995       H1027   1.027       .  S
N996       C2499   1.351       .  A
N996       C2500   1.350       .  A
N997       C1002   1.356       .  A
N997       C1001   1.358       .  A
N997       H1028   1.034       .  S
N998       C1005   1.353       .  A
N998       C1006   1.350       .  A
C999       C1007   1.387       .  A
C999       C2511   1.421   1_455  A
C1000      C1016   1.425       .  A
C1000      C1008   1.390       .  A
C1001      C1009   1.389       .  A
C1001      C2514   1.427   1_455  A
C1002      C1017   1.423       .  A
C1002      C1010   1.387       .  A
C1003      C1015   1.415       .  A
C1003      C1011   1.386       .  A
C1003      N2492   1.350       .  A
C1004      C1018   1.416       .  A
C1004      C1012   1.388       .  A
C1004      N2492   1.350       .  A
C1005      C1013   1.385       .  A
C1005      C1016   1.418       .  A
C1006      C1014   1.388       .  A
C1006      C1017   1.418       .  A
C1007      C1008   1.364       .  A
C1007      H1019   1.082       .  S
C1008      H1020   1.080       .  S
C1009      C1010   1.371       .  A
C1009      H1021   1.080       .  S
C1010      H1022   1.082       .  S
C1011      C1012   1.370       .  A
C1011      H1023   1.082       .  S
C1012      H1024   1.082       .  S
C1013      C1014   1.371       .  A
C1013      H1025   1.082       .  S
C1014      H1026   1.082       .  S
C1015      C2495   1.423       .  A
C1015      C1485   1.488       .  S
C1016      C1389   1.497       .  S
C1017      C1277   1.494       .  S
C1018      C2497   1.427       .  A
C1018      C1293   1.495       .  S
N1029      C1034   1.354       .  A
N1029      C1033   1.350       .  A
N1029      H1061   1.038       .  S
N1030      C1037   1.348   1_554  A
N1030      C1038   1.349       .  A
N1031      C1036   1.351       .  A
N1031      C1035   1.354       .  A
N1031      H1062   1.040       .  S
C1033      C1041   1.384       .  A
C1033      C1049   1.410       .  A
C1034      C1042   1.391       .  A
C1035      C1043   1.387       .  A
C1035      C1052   1.417       .  A
C1036      C1044   1.387       .  A
C1037      C1049   1.408       .  A
C1037      C1045   1.385       .  A
C1038      C1052   1.411       .  A
C1038      C1046   1.386       .  A
C1039      C1047   1.387       .  A
C1039      C1050   1.416       .  A
C1040      C1048   1.386       .  A
C1040      C1051   1.414       .  A
C1041      C1042   1.369       .  A
C1041      H1053   1.083       .  S
C1042      H1054   1.078       .  S
C1043      C1044   1.378       .  A
C1043      H1055   1.082       .  S
C1044      H1056   1.082       .  S
C1045      C1046   1.377   1_556  A
C1045      H1057   1.082       .  S
C1046      H1058   1.082       .  S
C1047      C1048   1.376   1_556  A
C1047      H1059   1.081       .  S
C1048      H1060   1.082       .  S
C1049      C1258   1.484       .  S
C1050      C1245   1.494       .  S
C1051      C1370   1.492       .  S
C1052      C1469   1.496       .  S
C1063      C1064   1.407       .  A
C1063      C1068   1.402       .  A
C1063      C1261   1.484       .  S
C1064      C1065   1.405       .  A
C1064      H1069   1.083       .  S
C1065      C1066   1.405       .  A
C1065      C1117   1.478       .  S
C1066      C1067   1.400       .  A
C1066      H1070   1.082       .  S
C1067      C1068   1.398       .  A
C1067      C1218   1.472       .  S
C1068      H1071   1.083       .  S
C1072      C1073   1.411       .  A
C1072      C1077   1.406       .  A
C1072      C1322   1.494       .  S
C1073      C1074   1.403       .  A
C1073      H1078   1.083       .  S
C1074      C1075   1.397       .  A
C1074      C1137   1.467       .  S
C1075      C1076   1.396       .  A
C1075      H1079   1.085       .  S
C1076      C1077   1.400       .  A
C1076      C1196   1.468       .  S
C1077      H1080   1.080       .  S
C1081      C1082   1.408       .  A
C1081      C1086   1.415       .  A
C1081      C1242   1.507       .  S
C1082      C1083   1.399       .  A
C1082      H1087   1.081       .  S
C1083      C1084   1.397       .  A
C1083      C1203   1.474       .  S
C1084      C1085   1.403       .  A
C1084      H1088   1.083       .  S
C1085      C1086   1.408       .  A
C1085      C1153   1.481       .  S
C1086      H1089   1.080       .  S
C1090      C1091   1.410       .  A
C1090      C1095   1.414       .  A
C1090      C1309   1.512       .  S
C1091      C1092   1.404       .  A
C1091      H1096   1.075       .  S
C1092      C1093   1.401       .  A
C1092      C1228   1.474       .  S
C1093      C1094   1.399       .  A
C1093      H1097   1.084       .  S
C1094      C1095   1.400       .  A
C1094      C1167   1.470       .  S
C1095      H1098   1.081       .  S
C1099      C1100   1.408       .  A
C1099      C1104   1.409       .  A
C1099      C1274   1.494       .  S
C1100      C1101   1.401       .  A
C1100      H1105   1.083       .  S
C1101      C1102   1.402       .  A
C1101      C1132   1.472       .  S
C1102      C1103   1.399       .  A
C1102      H1106   1.084       .  S
C1103      C1104   1.400       .  A
C1103      C1224   1.470       .  S
C1104      H1107   1.083       .  S
C1108      C1109   1.408       .  A
C1108      C1113   1.399       .  A
C1108      C1338   1.497       .  S
C1109      C1110   1.408       .  A
C1109      H1114   1.080       .  S
C1110      C1111   1.404       .  A
C1110      C1157   1.478       .  S
C1111      C1112   1.402       .  A
C1111      H1115   1.084       .  S
C1112      C1113   1.397       .  A
C1112      C1238   1.470       .  S
C1113      H1116   1.081       .  S
C1117      C1154   1.459       .  S
C1117      N1135   1.353       .  A
N1118      N1135   1.326       .  A
N1118      N1140   1.321       .  A
N1118     Co1155   2.088       .  S
C1119      C1157   1.459       .  S
C1119      H1164   1.081       .  S
C1119      N1144   1.336       .  A
H1120      C1161   1.082       .  S
C1121      C1125   1.463       .  S
C1121      H1150   1.081       .  S
C1121      N1145   1.336       .  A
Co1122     N1140   2.082       .  S
Co1122     N1130   2.078       .  S
Co1122     N1162   2.072       .  S
Co1122     N1138   2.094       .  S
Co1122    Cl1166   2.422       .  S
N1123      C1161   1.345       .  A
N1123      N1130   1.319       .  A
N1123     Co1124   2.089       .  S
Co1124     N1127   2.081       .  S
Co1124     N1144   2.069       .  S
Co1124     N1131   2.090       .  S
Co1124    Cl1166   2.476       .  S
C1125      C1183   1.482       .  S
C1125      N1163   1.352       .  A
N1126      N1133   1.320       .  A
N1126      N1156   1.323       .  A
N1126     Co1159   2.070       .  S
N1127      N1145   1.320       .  A
N1127      N1163   1.328       .  A
N1128      C1157   1.353       .  A
N1128      N1138   1.326       .  A
H1129      C1154   1.081       .  S
N1130      N1151   1.321       .  A
N1131      N1149   1.317       .  A
N1131      N1136   1.326       .  A
C1132      C1160   1.455       .  S
C1132      N1136   1.354       .  A
N1133      C1148   1.343       .  A
N1133     Co1155   2.097       .  S
C1134      C1137   1.452       .  S
C1134      H1168   1.082       .  S
C1134      N1162   1.335       .  A
C1137      N1158   1.351       .  A
N1138      N1144   1.319       .  A
N1139      C1165   1.345       .  A
N1139      N1141   1.319       .  A
N1139     Co1155   2.086       .  S
N1140      C1154   1.337       .  A
N1141      N1169   1.322       .  A
N1141     Co1159   2.086       .  S
H1142      C1165   1.081       .  S
H1143      C1160   1.082       .  S
N1145     Co1159   2.088       .  S
N1146      N1158   1.327       .  A
N1146      N1162   1.320       .  A
N1146     Co1155   2.089       .  S
C1147      C1161   1.466       .  S
C1147      C1174   1.472       .  S
C1147      N1151   1.347       .  A
C1148      C1167   1.465       .  S
C1148      H1152   1.082       .  S
N1149      C1160   1.336       .  A
N1149     Co1159   2.068       .  S
C1153      C1165   1.465       .  S
C1153      N1169   1.350       .  A
Co1155    Cl1166   2.476       .  S
N1156      C1167   1.345       .  A
Co1159    Cl1166   2.421       .  S
C1170      C1171   1.416       .  A
C1170      C1175   1.409       .  A
C1170      C1290   1.507       .  S
C1171      C1172   1.403       .  A
C1171      H1176   1.082       .  S
C1172      C1173   1.398       .  A
C1172      C1188   1.474       .  S
C1173      C1174   1.401       .  A
C1173      H1177   1.085       .  S
C1174      C1175   1.402       .  A
C1175      H1178   1.077       .  S
C1179      C1180   1.404       .  A
C1179      C1184   1.414       .  A
C1179      C1357   1.490       .  S
C1180      C1181   1.395       .  A
C1180      H1185   1.084       .  S
C1181      C1182   1.396       .  A
C1181      C1208   1.468       .  S
C1182      C1183   1.400       .  A
C1182      H1186   1.080       .  S
C1183      C1184   1.409       .  A
C1184      H1187   1.081       .  S
C1188      C1225   1.456       .  S
C1188      N1206   1.352       .  A
N1189      N1206   1.327       .  A
N1189      N1211   1.322       .  A
N1189     Co2722   2.098       .  S
C1190      C1228   1.464       .  S
C1190      H1235   1.082       .  S
C1190      N1215   1.343       .  A
H1191      C1232   1.081       .  S
C1192      C1196   1.459       .  S
C1192      H1221   1.082       .  S
C1192      N1216   1.337       .  A
Co1193     N2707   2.084   1_455  S
Co1193     N2697   2.076   1_455  S
Co1193     N1233   2.065       .  S
Co1193     N1209   2.088       .  S
Co1193    Cl1237   2.431       .  S
N1194      C1232   1.338       .  A
N1194      N1201   1.318       .  A
N1194     Co2691   2.073       .  S
Co1195     N2690   2.072   1_455  S
Co1195     N1946   2.080   1_465  S
Co1195     N1215   2.085       .  S
Co1195    Cl1237   2.465       .  S
C1196      N1234   1.350       .  A
N1197      N1204   1.319       .  A
N1197      N1227   1.325       .  A
N1197     Co2726   2.076       .  S
N1198      N1216   1.320       .  A
N1198      N1234   1.325       .  A
N1198     Co1943   2.080       .  S
N1199      C1228   1.350       .  A
N1199      N1209   1.323       .  A
H1200      C1225   1.082       .  S
N1201      N1222   1.323       .  A
N1201     Co2689   2.077       .  S
N1202      N1220   1.318       .  A
N1202      N1207   1.322       .  A
C1203      C1231   1.461       .  S
C1203      N1207   1.349       .  A
N1204      C1219   1.335       .  A
N1204     Co1974   2.073       .  S
C1205      C1208   1.455       .  S
C1205      H1239   1.081       .  S
C1205      N1233   1.334       .  A
C1208      N1229   1.350       .  A
N1209      N1215   1.319       .  A
N1210      C1236   1.343       .  A
N1210      N1212   1.322       .  A
N1211      C1225   1.340       .  A
N1211     Co2689   2.084       .  S
N1212      N1240   1.323       .  A
N1212     Co1230   2.083       .  S
H1213      C1236   1.082       .  S
H1214      C1231   1.081       .  S
N1216     Co2726   2.084       .  S
N1217      N1229   1.323       .  A
N1217      N1233   1.318       .  A
N1217     Co1226   2.075       .  S
C1218      C1232   1.459       .  S
C1218      N1222   1.349       .  A
C1219      C1238   1.460       .  S
C1219      H1223   1.081       .  S
N1220      C1231   1.341       .  A
N1220     Co1230   2.079       .  S
C1224      C1236   1.461       .  S
C1224      N1240   1.348       .  A
Co1226     N2685   2.098   1_455  S
Co1226     N1952   2.073   1_465  S
Co1226    Cl1237   2.463       .  S
N1227      C1238   1.348       .  A
Co1230     N2693   2.076   1_455  S
Co1230     N2712   2.084   1_455  S
C1241      C1242   1.414       .  A
C1241      C1246   1.400       .  A
C1241      H1248   1.081       .  S
C1242      C1243   1.422       .  A
C1243      C1244   1.406       .  A
C1243      C1250   1.508       .  S
C1244      C1245   1.403       .  A
C1244      H1249   1.084       .  S
C1245      C1246   1.412       .  A
C1247      H1251   1.110       .  S
C1247      H1252   1.109       .  S
C1247      H1253   1.110       .  S
C1250      H1254   1.108       .  S
C1250      H1255   1.110       .  S
C1250      H1256   1.111       .  S
C1257      C1258   1.402       .  A
C1257      C1262   1.403       .  A
C1257      H1264   1.084       .  S
C1258      C1259   1.413       .  A
C1259      C1260   1.397       .  A
C1259      C1266   1.510       .  S
C1260      C1261   1.405       .  A
C1260      H1265   1.084       .  S
C1261      C1262   1.418       .  A
C1262      C1263   1.507       .  S
C1263      H1267   1.111       .  S
C1263      H1268   1.107       .  S
C1263      H1269   1.110       .  S
C1266      H1270   1.110       .  S
C1266      H1271   1.108       .  S
C1266      H1272   1.111       .  S
C1273      C1274   1.410       .  A
C1273      C1278   1.401       .  A
C1273      H1280   1.083       .  S
C1274      C1275   1.417       .  A
C1275      C1276   1.403       .  A
C1275      C1282   1.508       .  S
C1276      C1277   1.405       .  A
C1276      H1281   1.084       .  S
C1277      C1278   1.413       .  A
C1278      C1279   1.510       .  S
C1279      H1283   1.111       .  S
C1279      H1284   1.107       .  S
C1279      H1285   1.110       .  S
C1282      H1286   1.110       .  S
C1282      H1287   1.108       .  S
C1282      H1288   1.111       .  S
C1289      C1290   1.412       .  A
C1289      C1294   1.405       .  A
C1289      H1296   1.083       .  S
C1290      C1291   1.430       .  A
C1291      C1292   1.403       .  A
C1291      C1298   1.511       .  S
C1292      C1293   1.398       .  A
C1292      H1297   1.085       .  S
C1293      C1294   1.412       .  A
C1294      C2791   1.509       .  S
C1295      C2790   1.509   1_455  S
C1295      H1299   1.111       .  S
C1295      H1300   1.107       .  S
C1295      H1301   1.110       .  S
C1298      H1302   1.107       .  S
C1298      H1303   1.110       .  S
C1298      H1304   1.111       .  S
C1305      C1306   1.400       .  A
C1305      C1310   1.403       .  A
C1305      H1312   1.085       .  S
C1306      C1307   1.414       .  A
C1307      C1308   1.404       .  A
C1307      C1314   1.509       .  S
C1308      C1309   1.414       .  A
C1308      H1313   1.082       .  S
C1309      C1310   1.430       .  A
C1310      C1311   1.511       .  S
C1311      H1315   1.111       .  S
C1311      H1316   1.110       .  S
C1311      H1317   1.108       .  S
C1314      H1318   1.107       .  S
C1314      H1319   1.110       .  S
C1314      H1320   1.111       .  S
C1321      C1322   1.409       .  A
C1321      C1326   1.405       .  A
C1321      H1328   1.084       .  S
C1322      C1323   1.425       .  A
C1323      C1324   1.398       .  A
C1323      C1330   1.512       .  S
C1324      C1325   1.399       .  A
C1324      H2825   1.085       .  S
C1325      C1326   1.413       .  A
C1326      C1327   1.508       .  S
C1327      H1331   1.111       .  S
C1327      H1332   1.110       .  S
C1327      H1333   1.106       .  S
H1329      C2820   1.085   1_455  S
C1330      H1334   1.110       .  S
C1330      H1335   1.107       .  S
C1330      H2832   1.111       .  S
H1336      C2826   1.111       .  S
C1337      C1338   1.409       .  A
C1337      C1342   1.402       .  A
C1337      H1344   1.083       .  S
C1338      C1339   1.424       .  A
C1339      C1340   1.399       .  A
C1339      C1346   1.512       .  S
C1340      C1341   1.400       .  A
C1341      C1342   1.413       .  A
C1342      C1343   1.508       .  S
C1343      H1347   1.111       .  S
C1343      H1348   1.107       .  S
C1343      H1349   1.110       .  S
C1346      H1350   1.107       .  S
C1346      H1351   1.110       .  S
C1353      C1354   1.405       .  A
C1353      C1358   1.408       .  A
C1353      H1360   1.084       .  S
C1354      C1355   1.412       .  A
C1355      C1356   1.396       .  A
C1355      C1362   1.509       .  S
C1356      C1357   1.407       .  A
C1356      H1361   1.084       .  S
C1357      C1358   1.417       .  A
C1358      C1359   1.509       .  S
C1359      H1363   1.111       .  S
C1359      H1364   1.111       .  S
C1359      H1365   1.106       .  S
C1362      H1366   1.109       .  S
C1362      H1367   1.110       .  S
C1362      H1368   1.111       .  S
C1369      C1370   1.403       .  A
C1369      C1374   1.405       .  A
C1370      C1371   1.414       .  A
C1371      C1372   1.400       .  A
C1371      C1378   1.510       .  S
C1372      C1373   1.407       .  A
C1372      H1377   1.083       .  S
C1373      C1374   1.419       .  A
C1374      C1375   1.507       .  S
C1375      H1379   1.111       .  S
C1375      H1380   1.108       .  S
C1375      H1381   1.110       .  S
C1378      H1382   1.110       .  S
C1378      H1383   1.108       .  S
C1378      H1384   1.111       .  S
C1385      C1386   1.412       .  A
C1385      C1390   1.408       .  A
C1385      H1392   1.082       .  S
C1386      C1387   1.427       .  A
C1387      C1388   1.400       .  A
C1387      C1394   1.513       .  S
C1388      C1389   1.400       .  A
C1388      H1393   1.085       .  S
C1389      C1390   1.414       .  A
C1390      C1391   1.508       .  S
C1391      H1395   1.111       .  S
C1391      H1396   1.106       .  S
C1391      H1397   1.110       .  S
C1394      H1398   1.110       .  S
C1394      H1399   1.107       .  S
C1394      H1400   1.111       .  S
C1401      C1402   1.403       .  A
C1401      C1406   1.401       .  A
C1401      H1408   1.085       .  S
C1402      C1403   1.416       .  A
C1403      C1404   1.408       .  A
C1403      C1410   1.507       .  S
C1404      C1405   1.409       .  A
C1404      H1409   1.084       .  S
C1405      C1406   1.421       .  A
C1406      C1407   1.512       .  S
C1407      H1411   1.111       .  S
C1407      H1412   1.110       .  S
C1407      H1413   1.106       .  S
C1410      H1415   1.110       .  S
C1410      H1416   1.111       .  S
C1417      C1418   1.409       .  A
C1417      C1422   1.403       .  A
C1417      H1424   1.083       .  S
C1418      C1419   1.426       .  A
C1419      C1420   1.400       .  A
C1419      C1426   1.513       .  S
C1420      C1421   1.399       .  A
C1420      H1425   1.085       .  S
C1421      C1422   1.411       .  A
C1422      C1423   1.508       .  S
C1423      H1427   1.111       .  S
C1423      H1428   1.110       .  S
C1423      H1429   1.108       .  S
C1426      H1430   1.110       .  S
C1426      H1431   1.107       .  S
C1426      H1432   1.111       .  S
C1433      C1434   1.411       .  A
C1433      C1438   1.400       .  A
C1433      H1440   1.081       .  S
C1434      C1435   1.422       .  A
C1435      C1436   1.403       .  A
C1435      C1442   1.508       .  S
C1436      C1437   1.401       .  A
C1436      H2937   1.084       .  S
C1437      C1438   1.411       .  A
C1438      C1439   1.510       .  S
C1439      H1443   1.111       .  S
C1439      H1444   1.110       .  S
C1439      H1445   1.107       .  S
H1441      C2932   1.084       .  S
C1442      H1446   1.108       .  S
C1442      H1447   1.110       .  S
C1442      H2944   1.111       .  S
H1448      C2938   1.111       .  S
C1449      C1450   1.401       .  A
C1449      C1454   1.401       .  A
C1449      H1456   1.085       .  S
C1450      C1451   1.413       .  A
C1451      C1452   1.405       .  A
C1451      C1458   1.507       .  S
C1452      C1453   1.405       .  A
C1452      H1457   1.084       .  S
C1453      C1454   1.420       .  A
C1454      C1455   1.511       .  S
C1455      H1459   1.111       .  S
C1455      H1460   1.107       .  S
C1455      H1461   1.110       .  S
C1458      H1462   1.107       .  S
C1458      H1463   1.110       .  S
C1458      H1464   1.111       .  S
C1465      C1466   1.406       .  A
C1465      C1470   1.408       .  A
C1465      H1472   1.084       .  S
C1466      C1467   1.419       .  A
C1467      C1468   1.402       .  A
C1467      C1474   1.510       .  S
C1468      C1469   1.403       .  A
C1468      H1473   1.084       .  S
C1469      C1470   1.416       .  A
C1470      C1471   1.508       .  S
C1471      H1475   1.111       .  S
C1471      H1476   1.107       .  S
C1471      H1477   1.110       .  S
C1474      H1478   1.107       .  S
C1474      H1479   1.111       .  S
C1474      H1480   1.111       .  S
C1481      C1482   1.410       .  A
C1481      C1486   1.401       .  A
C1481      H1488   1.083       .  S
C1482      C1483   1.424       .  A
C1483      C1484   1.398       .  A
C1483      C1490   1.513       .  S
C1484      C1485   1.401       .  A
C1484      H2985   1.085       .  S
C1485      C1486   1.411       .  A
C1486      C1487   1.507       .  S
C1487      H1491   1.111       .  S
C1487      H1492   1.110       .  S
C1487      H1493   1.107       .  S
H1489      C2980   1.085   1_455  S
C1490      H1494   1.108       .  S
C1490      H1495   1.110       .  S
C1490      H2992   1.111       .  S
H1496      C2986   1.111       .  S
C1497      C1498   1.400       .  A
C1497      C1502   1.409       .  A
C1497      C2230   1.490       .  S
C1498      C1499   1.397       .  A
C1498      H1503   1.079       .  S
C1499      C1500   1.397       .  A
C1499      C1533   1.469       .  S
C1500      C1501   1.402       .  A
C1500      H1504   1.083       .  S
C1501      C1502   1.404       .  A
C1501      C1652   1.473       .  S
C1502      H1505   1.082       .  S
C1506      C1507   1.408       .  A
C1506      C1511   1.407       .  A
C1506      C2214   1.491       .  S
C1507      C1508   1.403       .  A
C1507      H1512   1.082       .  S
C1508      C1509   1.401       .  A
C1508      C1563   1.471       .  S
C1509      C1510   1.400       .  A
C1509      H1513   1.085       .  S
C1510      C1511   1.403       .  A
C1510      C1622   1.471       .  S
C1511      H1514   1.084       .  S
C1515      C1516   1.405       .  A
C1515      C1520   1.404       .  A
C1515      C2201   1.486       .  S
C1516      C1517   1.401       .  A
C1516      H1521   1.084       .  S
C1517      C1518   1.402       .  A
C1517      C1662   1.471       .  S
C1518      C1519   1.404       .  A
C1518      H1522   1.084       .  S
C1519      C1520   1.402       .  A
C1519      C1583   1.471       .  S
C1520      H1523   1.082       .  S
C1524      C1525   1.406       .  A
C1524      C1529   1.408       .  A
C1524      C2182   1.501       .  S
C1525      C1526   1.404       .  A
C1525      H1530   1.081       .  S
C1526      C1527   1.401       .  A
C1526      C1672   1.477       .  S
C1527      C1528   1.406       .  A
C1527      H1531   1.084       .  S
C1528      C1529   1.404       .  A
C1528      C1573   1.477       .  S
C1529      H1532   1.080       .  S
C1533      C1570   1.458       .  S
N1534      N1551   1.321       .  A
N1534     Co1571   2.074       .  S
C1535      H1580   1.081       .  S
C1535      N2308   1.341       .  A
H1536      C1577   1.081       .  S
C1537      C1541   1.458       .  S
C1537      H1566   1.080       .  S
C1537      N1561   1.331       .  A
Co1538     N1556   2.075       .  S
Co1538     N1546   2.079       .  S
Co1538     N1578   2.073       .  S
Co1538     N1554   2.080       .  S
N1539      C1577   1.345       .  A
N1539     Co1540   2.091       .  S
Co1540     N1543   2.089       .  S
Co1540     N1560   2.083       .  S
Co1540     N1547   2.090       .  S
Co1540    Cl1582   2.478       .  S
C1541      C1588   1.480       .  S
C1541      N1579   1.355       .  A
N1542      N1549   1.319       .  A
N1542      N1572   1.322       .  A
N1542     Co1575   2.077       .  S
N1543      N1561   1.318       .  A
N1543      N1579   1.329       .  A
N1544      C1573   1.349       .  A
N1544      N2302   1.323       .  A
H1545      C1570   1.081       .  S
N1546      N1567   1.321       .  A
N1547      N1565   1.320       .  A
N1547      N2300   1.325       .  A
C1548      C1576   1.456       .  S
C1548      C1617   1.470       .  S
C1548      N1552   1.351       .  A
N1549      C1564   1.343       .  A
N1549     Co1571   2.091       .  S
C1550      C1553   1.453       .  S
C1550      H1584   1.082       .  S
C1550      N2326   1.334       .  A
N1552      N2295   1.325   1_545  A
C1553      C1599   1.471       .  S
N1554      N2292   1.323       .  A
N1555      C2329   1.341       .  A
N1555      N1557   1.320       .  A
N1555     Co1571   2.083       .  S
N1556      C1570   1.339       .  A
N1557      N2333   1.323       .  A
N1557     Co1575   2.078       .  S
H1558      C1581   1.082       .  S
H1559      C1576   1.082       .  S
N1560      C2283   1.340       .  A
N1561     Co1575   2.071       .  S
N1562      N2322   1.328       .  A
N1562     Co1571   2.094       .  S
C1563      N1567   1.347       .  A
C1564      C1583   1.466       .  S
C1564      H1568   1.082       .  S
N1565      C2324   1.338       .  A
N1565     Co1575   2.077       .  S
C1569      C1581   1.464       .  S
C1569      C1606   1.475       .  S
C1569      N1585   1.347       .  A
Co1571    Cl1582   2.474       .  S
N1572      C1583   1.347       .  A
N1574      N2310   1.328   1_545  A
Co1575    Cl1582   2.421       .  S
C1576      N2313   1.338   1_545  A
N1578      C2298   1.334       .  A
C1581      N2303   1.341   1_545  A
N1585      N2305   1.323   1_545  A
C1586      C1587   1.416       .  A
C1586      C1591   1.404       .  A
C1586      C2166   1.495       .  S
C1587      C1588   1.406       .  A
C1587      H1592   1.083       .  S
C1588      C1589   1.401       .  A
C1589      C1590   1.394       .  A
C1589      H1593   1.079       .  S
C1590      C1591   1.396       .  A
C1590      C1642   1.470       .  S
C1591      H1594   1.079       .  S
C1595      C1596   1.410       .  A
C1595      C1600   1.412       .  A
C1595      C2153   1.496       .  S
C1596      C1597   1.402       .  A
C1596      H1601   1.081       .  S
C1597      C1598   1.396       .  A
C1597      C1630   1.472       .  S
C1598      C1599   1.399       .  A
C1598      H1602   1.085       .  S
C1599      C1600   1.405       .  A
C1600      H1603   1.084       .  S
C1604      C1605   1.407       .  A
C1604      C1609   1.418       .  A
C1604      C2134   1.509       .  S
C1605      C1606   1.397       .  A
C1605      H1610   1.080       .  S
C1606      C1607   1.398       .  A
C1607      C1608   1.402       .  A
C1607      H1611   1.082       .  S
C1608      C1609   1.410       .  A
C1608      C1637   1.484       .  S
C1609      H1612   1.081       .  S
C1613      C1614   1.410       .  A
C1613      C1618   1.407       .  A
C1613      C2121   1.493       .  S
C1614      C1615   1.403       .  A
C1614      H1619   1.084       .  S
C1615      C1616   1.401       .  A
C1615      C1658   1.472       .  S
C1616      C1617   1.400       .  A
C1616      H1620   1.085       .  S
C1617      C1618   1.401       .  A
C1618      H1621   1.083       .  S
C1622      C1659   1.456       .  S
C1622      N1640   1.352       .  A
N1623      N1640   1.326       .  A
N1623      N1645   1.320       .  A
N1623     Co1660   2.090       .  S
C1624      C1662   1.461       .  S
C1624      H1669   1.082       .  S
C1624      N1649   1.342       .  A
H1625      C1666   1.081       .  S
C1626      C1630   1.458       .  S
C1626      H1655   1.082       .  S
C1626      N1650   1.338       .  A
Co1627     N1645   2.078       .  S
Co1627     N1635   2.077       .  S
Co1627     N1667   2.076       .  S
Co1627     N1643   2.083       .  S
Co1627    Cl1671   2.430       .  S
N1628      C1666   1.342       .  A
N1628      N1635   1.319       .  A
N1628     Co1629   2.079       .  S
Co1629     N1632   2.087       .  S
Co1629     N1649   2.088       .  S
Co1629     N1636   2.083       .  S
Co1629    Cl1671   2.471       .  S
C1630      N1668   1.350       .  A
N1631      N1638   1.320       .  A
N1631      N1661   1.329       .  A
N1631     Co1664   2.100       .  S
N1632      N1650   1.321       .  A
N1632      N1668   1.327       .  A
N1633      C1662   1.348       .  A
N1633      N1643   1.324       .  A
H1634      C1659   1.082       .  S
N1635      N1656   1.321       .  A
N1636      N1654   1.320       .  A
N1636      N1641   1.326       .  A
C1637      C1665   1.464       .  S
C1637      N1641   1.352       .  A
N1638      C1653   1.335       .  A
N1638     Co1660   2.069       .  S
C1639      C1642   1.459       .  S
C1639      H1673   1.081       .  S
C1639      N1667   1.337       .  A
C1642      N1663   1.348       .  A
N1643      N1649   1.320       .  A
N1644      C1670   1.344       .  A
N1644      N1646   1.320       .  A
N1644     Co1660   2.088       .  S
N1645      C1659   1.338       .  A
N1646      N1674   1.322       .  A
N1646     Co1664   2.086       .  S
H1647      C1670   1.082       .  S
H1648      C1665   1.081       .  S
N1650     Co1664   2.084       .  S
N1651      N1663   1.322       .  A
N1651      N1667   1.319       .  A
N1651     Co1660   2.070       .  S
C1652      C1666   1.462       .  S
C1652      N1656   1.348       .  A
C1653      C1672   1.456       .  S
C1653      H1657   1.081       .  S
N1654      C1665   1.340       .  A
N1654     Co1664   2.093       .  S
C1658      C1670   1.462       .  S
C1658      N1674   1.349       .  A
Co1660    Cl1671   2.466       .  S
N1661      C1672   1.354       .  A
Co1664    Cl1671   2.433       .  S
N1675      C1680   1.355       .  A
N1675      C1679   1.353       .  A
N1675      H1707   1.037       .  S
N1676      C2431   1.350       .  A
N1676      C2432   1.352       .  A
N1677      C1682   1.353       .  A
N1677      C1681   1.352       .  A
N1677      H1708   1.039       .  S
N1678      C1685   1.349       .  A
N1678      C1686   1.348       .  A
C1679      C1687   1.392       .  A
C1679      C2443   1.421       .  A
C1680      C1696   1.416       .  A
C1680      C1688   1.384       .  A
C1681      C1689   1.386       .  A
C1681      C2446   1.415       .  A
C1682      C1697   1.414       .  A
C1682      C1690   1.387       .  A
C1683      C1695   1.415       .  A
C1683      C1691   1.387       .  A
C1683      N2424   1.350   1_545  A
C1684      C1698   1.414   1_545  A
C1684      C1692   1.386       .  A
C1684      N2424   1.352   1_545  A
C1685      C1693   1.384       .  A
C1685      C1696   1.406       .  A
C1686      C1694   1.387       .  A
C1686      C1697   1.409       .  A
C1687      C1688   1.367       .  A
C1687      H1699   1.079       .  S
C1688      H1700   1.082       .  S
C1689      C1690   1.376       .  A
C1689      H1701   1.083       .  S
C1690      H1702   1.082       .  S
C1691      C1692   1.376       .  A
C1691      H1703   1.082       .  S
C1692      H1704   1.082       .  S
C1693      C1694   1.376       .  A
C1693      H1705   1.082       .  S
C1694      H1706   1.082       .  S
C1695      C2427   1.421   1_545  A
C1695      C2089   1.488       .  S
C1696      C2102   1.491       .  S
C1697      C2198   1.488       .  S
C1698      C2429   1.415       .  A
C1698      C2150   1.498   1_565  S
N1709      C1714   1.355       .  A
N1709      C1713   1.352       .  A
N1709      H1741   1.030       .  S
N1710      C1717   1.352   1_556  A
N1710      C1718   1.352       .  A
N1711      C1716   1.355       .  A
N1711      C1715   1.357       .  A
N1711      H1742   1.033       .  S
N1712      C1719   1.351   1_556  A
N1712      C1720   1.349       .  A
C1713      C1721   1.389       .  A
C1713      C1729   1.421       .  A
C1714      C1722   1.388       .  A
C1715      C1723   1.392       .  A
C1715      C1732   1.430       .  A
C1716      C1724   1.385       .  A
C1717      C1729   1.416       .  A
C1717      C1725   1.385       .  A
C1718      C1732   1.420       .  A
C1718      C1726   1.388       .  A
C1719      C1727   1.386       .  A
C1719      C1730   1.414       .  A
C1720      C1728   1.386       .  A
C1720      C1731   1.413       .  A
C1721      C1722   1.367       .  A
C1721      H1733   1.082       .  S
C1722      H1734   1.081       .  S
C1723      C1724   1.370       .  A
C1723      H1735   1.080       .  S
C1724      H1736   1.082       .  S
C1725      C1726   1.372   1_554  A
C1725      H1737   1.082       .  S
C1726      H1738   1.081       .  S
C1727      C1728   1.371   1_554  A
C1727      H1739   1.081       .  S
C1728      H1740   1.082       .  S
C1729      C2169   1.489       .  S
C1730      C2185   1.490       .  S
C1731      C2073   1.492       .  S
C1732      C2054   1.501       .  S
N1743      C1748   1.355       .  A
N1743      C1747   1.352       .  A
N1743      H1775   1.033       .  S
N1745      C1750   1.355       .  A
N1745      C1749   1.358       .  A
N1745      H1776   1.034       .  S
N1746      C1753   1.353       .  A
N1746      C1754   1.350       .  A
C1747      C1755   1.385       .  A
C1748      C1764   1.423       .  A
C1748      C1756   1.391       .  A
C1749      C1757   1.389       .  A
C1750      C1765   1.422       .  A
C1750      C1758   1.386       .  A
C1751      C1763   1.412       .  A
C1751      C1759   1.385       .  A
C1752      C1766   1.416       .  A
C1752      C1760   1.388       .  A
C1753      C1761   1.385       .  A
C1753      C1764   1.416       .  A
C1754      C1762   1.388       .  A
C1754      C1765   1.417       .  A
C1755      C1756   1.364       .  A
C1755      H1767   1.083       .  S
C1756      H1768   1.079       .  S
C1757      C1758   1.372       .  A
C1757      H1769   1.080       .  S
C1758      H1770   1.082       .  S
C1759      C1760   1.370       .  A
C1759      H1771   1.082       .  S
C1760      H1772   1.082       .  S
C1761      C1762   1.372       .  A
C1761      H1773   1.082       .  S
C1762      H1774   1.082       .  S
C1763      C2233   1.488       .  S
C1764      C2137   1.496       .  S
C1765      C2025   1.493       .  S
C1766      C2041   1.495       .  S
N1777      C1782   1.354       .  A
N1777      C1781   1.350       .  A
N1777      H1809   1.038       .  S
N1778      C1785   1.348   1_554  A
N1778      C1786   1.349       .  A
N1779      C1784   1.351       .  A
N1779      C1783   1.354       .  A
N1779      H1810   1.040       .  S
N1780      C2535   1.352   1_554  A
N1780      C2536   1.350       .  A
C1781      C1789   1.384       .  A
C1781      C1797   1.410       .  A
C1782      C2546   1.420       .  A
C1782      C1790   1.391       .  A
C1783      C1791   1.387       .  A
C1783      C1800   1.417       .  A
C1784      C2547   1.414       .  A
C1784      C1792   1.387       .  A
C1785      C1797   1.408       .  A
C1785      C1793   1.385       .  A
C1786      C1800   1.411       .  A
C1786      C1794   1.386       .  A
C1787      C1795   1.387       .  A
C1787      C1798   1.416       .  A
C1787      N2528   1.352   1_546  A
C1788      C1796   1.386       .  A
C1788      C1799   1.414       .  A
C1788      N2528   1.350   1_545  A
C1789      C1790   1.369       .  A
C1789      H1801   1.083       .  S
C1790      H1802   1.078       .  S
C1791      C1792   1.378       .  A
C1791      H1803   1.082       .  S
C1792      H1804   1.082       .  S
C1793      C1794   1.377   1_556  A
C1793      H1805   1.082       .  S
C1794      H1806   1.082       .  S
C1795      C1796   1.376   1_556  A
C1795      H1807   1.081       .  S
C1796      H1808   1.082       .  S
C1797      C2006   1.484       .  S
C1798      C2530   1.420   1_545  A
C1798      C1993   1.494       .  S
C1799      C2532   1.414   1_545  A
C1799      C2118   1.492       .  S
C1800      C2217   1.496       .  S
C1811      C1812   1.406       .  A
C1811      C1816   1.402       .  A
C1811      C2009   1.484       .  S
C1812      C1813   1.405       .  A
C1812      H1817   1.083       .  S
C1813      C1814   1.405       .  A
C1813      C1865   1.478       .  S
C1814      C1815   1.401       .  A
C1814      H1818   1.082       .  S
C1815      C1816   1.398       .  A
C1815      C1966   1.473       .  S
C1816      H1819   1.083       .  S
C1820      C1821   1.411       .  A
C1820      C1825   1.406       .  A
C1820      C2070   1.494       .  S
C1821      C1822   1.403       .  A
C1821      H1826   1.083       .  S
C1822      C1823   1.397       .  A
C1822      C1885   1.467       .  S
C1823      C1824   1.396       .  A
C1823      H1827   1.085       .  S
C1824      C1825   1.400       .  A
C1824      C1944   1.468       .  S
C1825      H1828   1.080       .  S
C1829      C1830   1.408       .  A
C1829      C1834   1.415       .  A
C1829      C1990   1.507       .  S
C1830      C1831   1.399       .  A
C1830      H1835   1.081       .  S
C1831      C1832   1.397       .  A
C1831      C1951   1.474       .  S
C1832      C1833   1.403       .  A
C1832      H1836   1.083       .  S
C1833      C1834   1.408       .  A
C1833      C1901   1.481       .  S
C1834      H1837   1.080       .  S
C1838      C1839   1.410       .  A
C1838      C1843   1.414       .  A
C1838      C2057   1.512       .  S
C1839      C1840   1.404       .  A
C1839      H1844   1.075       .  S
C1840      C1841   1.401       .  A
C1840      C1976   1.474       .  S
C1841      C1842   1.399       .  A
C1841      H1845   1.084       .  S
C1842      C1843   1.400       .  A
C1842      C1915   1.470       .  S
C1843      H1846   1.081       .  S
C1847      C1848   1.408       .  A
C1847      C1852   1.409       .  A
C1847      C2022   1.493       .  S
C1848      C1849   1.402       .  A
C1848      H1853   1.083       .  S
C1849      C1850   1.402       .  A
C1849      C1880   1.472       .  S
C1850      C1851   1.399       .  A
C1850      H1854   1.084       .  S
C1851      C1852   1.401       .  A
C1851      C1972   1.470       .  S
C1852      H1855   1.083       .  S
C1856      C1857   1.408       .  A
C1856      C1861   1.399       .  A
C1856      C2086   1.496       .  S
C1857      C1858   1.408       .  A
C1857      H1862   1.080       .  S
C1858      C1859   1.404       .  A
C1858      C1905   1.478       .  S
C1859      C1860   1.402       .  A
C1859      H1863   1.084       .  S
C1860      C1861   1.397       .  A
C1860      C1986   1.470       .  S
C1861      H1864   1.081       .  S
C1865      C1902   1.459       .  S
C1865      N1883   1.353       .  A
N1866      N1883   1.326       .  A
N1866      N1888   1.321       .  A
N1866     Co1903   2.088       .  S
C1867      C1905   1.459       .  S
C1867      H1912   1.081       .  S
C1867      N1892   1.336       .  A
H1868      C1909   1.082       .  S
C1869      C1873   1.463       .  S
C1869      H1898   1.081       .  S
C1869      N1893   1.336       .  A
Co1870     N1888   2.082       .  S
Co1870     N1878   2.078       .  S
Co1870     N1910   2.072       .  S
Co1870     N1886   2.094       .  S
Co1870    Cl1914   2.422       .  S
N1871      C1909   1.345       .  A
N1871      N1878   1.319       .  A
N1871     Co1872   2.089       .  S
Co1872     N1875   2.081       .  S
Co1872     N1892   2.069       .  S
Co1872     N1879   2.090       .  S
Co1872    Cl1914   2.476       .  S
C1873      C1931   1.482       .  S
C1873      N1911   1.352       .  A
N1874      N1881   1.320       .  A
N1874      N1904   1.323       .  A
N1874     Co1907   2.070       .  S
N1875      N1893   1.320       .  A
N1875      N1911   1.328       .  A
N1876      C1905   1.353       .  A
N1876      N1886   1.326       .  A
H1877      C1902   1.081       .  S
N1878      N1899   1.321       .  A
N1879      N1897   1.317       .  A
N1879      N1884   1.326       .  A
C1880      C1908   1.456       .  S
C1880      N1884   1.354       .  A
N1881      C1896   1.343       .  A
N1881     Co1903   2.097       .  S
C1882      C1885   1.453       .  S
C1882      H1916   1.082       .  S
C1882      N1910   1.335       .  A
C1885      N1906   1.351       .  A
N1886      N1892   1.319       .  A
N1887      C1913   1.345       .  A
N1887      N1889   1.319       .  A
N1887     Co1903   2.086       .  S
N1888      C1902   1.337       .  A
N1889      N1917   1.322       .  A
N1889     Co1907   2.086       .  S
H1890      C1913   1.081       .  S
H1891      C1908   1.082       .  S
N1893     Co1907   2.088       .  S
N1894      N1906   1.327       .  A
N1894      N1910   1.320       .  A
N1894     Co1903   2.089       .  S
C1895      C1909   1.466       .  S
C1895      C1922   1.473       .  S
C1895      N1899   1.348       .  A
C1896      C1915   1.464       .  S
C1896      H1900   1.082       .  S
N1897      C1908   1.336       .  A
N1897     Co1907   2.068       .  S
C1901      C1913   1.465       .  S
C1901      N1917   1.350       .  A
Co1903    Cl1914   2.476       .  S
N1904      C1915   1.345       .  A
Co1907    Cl1914   2.421       .  S
C1918      C1919   1.416       .  A
C1918      C1923   1.410       .  A
C1918      C2038   1.509       .  S
C1919      C1920   1.403       .  A
C1919      H1924   1.082       .  S
C1920      C1921   1.397       .  A
C1920      C1936   1.474       .  S
C1921      C1922   1.400       .  A
C1921      H1925   1.085       .  S
C1922      C1923   1.402       .  A
C1923      H1926   1.077       .  S
C1927      C1928   1.404       .  A
C1927      C1932   1.414       .  A
C1927      C2105   1.490       .  S
C1928      C1929   1.395       .  A
C1928      H1933   1.084       .  S
C1929      C1930   1.396       .  A
C1929      C1956   1.468       .  S
C1930      C1931   1.400       .  A
C1930      H1934   1.080       .  S
C1931      C1932   1.409       .  A
C1932      H1935   1.081       .  S
C1936      C1973   1.456       .  S
C1936      N1954   1.352       .  A
N1937      N1954   1.327       .  A
N1937      N1959   1.322       .  A
C1938      C1976   1.464       .  S
C1938      H1983   1.082       .  S
C1938      N1963   1.343       .  A
H1939      C1980   1.081       .  S
C1940      C1944   1.459       .  S
C1940      H1969   1.082       .  S
C1940      N1964   1.337       .  A
Co1941     N1981   2.065       .  S
Co1941     N1957   2.088       .  S
Co1941    Cl1985   2.431       .  S
N1942      C1980   1.338       .  A
N1942      N1949   1.318       .  A
Co1943     N1963   2.085       .  S
Co1943     N2698   2.074       .  S
Co1943    Cl1985   2.465       .  S
C1944      N1982   1.350       .  A
N1945      N1952   1.319       .  A
N1945      N1975   1.325       .  A
N1946      N1964   1.320       .  A
N1946      N1982   1.325       .  A
N1947      C1976   1.350       .  A
N1947      N1957   1.323       .  A
H1948      C1973   1.082       .  S
N1949      N1970   1.324       .  A
N1950      N1968   1.318       .  A
N1950      N1955   1.322       .  A
N1950     Co2691   2.074   1_545  S
C1951      C1979   1.461       .  S
C1951      N1955   1.349       .  A
N1952      C1967   1.335       .  A
C1953      C1956   1.455       .  S
C1953      H1987   1.081       .  S
C1953      N1981   1.334       .  A
C1956      N1977   1.350       .  A
N1957      N1963   1.319       .  A
N1958      C1984   1.342       .  A
N1958      N1960   1.322       .  A
N1958     Co2722   2.092   1_545  S
N1959      C1973   1.339       .  A
N1960      N1988   1.324       .  A
N1960     Co1978   2.084       .  S
H1961      C1984   1.082   1_565  S
H1962      C1979   1.081       .  S
N1965      N1977   1.323       .  A
N1965      N1981   1.318       .  A
N1965     Co1974   2.075       .  S
C1966      C1980   1.460       .  S
C1966      N1970   1.349       .  A
C1967      C1986   1.460       .  S
C1967      H1971   1.081   1_545  S
N1968      C1979   1.341       .  A
N1968     Co1978   2.079       .  S
C1972      C1984   1.460       .  S
C1972      N1988   1.348       .  A
Co1974     N2706   2.093       .  S
Co1974    Cl1985   2.463       .  S
N1975      C1986   1.348       .  A
Co1978    Cl2733   2.436   1_545  S
Cl1985    Co2726   2.436       .  S
C1989      C1990   1.414       .  A
C1989      C1994   1.400       .  A
C1989      H1996   1.081       .  S
C1990      C1991   1.422       .  A
C1991      C1992   1.406       .  A
C1991      C1998   1.508       .  S
C1992      C1993   1.403       .  A
C1992      H1997   1.084       .  S
C1993      C1994   1.412       .  A
C1994      C2743   1.509   1_545  S
C1995      C2742   1.509       .  S
C1995      H1999   1.110       .  S
C1995      H2000   1.109       .  S
C1995      H2001   1.110       .  S
C1998      H2002   1.108       .  S
C1998      H2003   1.110       .  S
C1998      H2004   1.111       .  S
C2005      C2006   1.402       .  A
C2005      C2010   1.403       .  A
C2005      H2012   1.084       .  S
C2006      C2007   1.413       .  A
C2007      C2008   1.397       .  A
C2007      C2014   1.510       .  S
C2008      C2009   1.405       .  A
C2008      H2013   1.084       .  S
C2009      C2010   1.418       .  A
C2010      C2011   1.507       .  S
C2011      H2015   1.111       .  S
C2011      H2016   1.107       .  S
C2011      H2017   1.110       .  S
C2014      H2018   1.110       .  S
C2014      H2019   1.108       .  S
C2014      H2020   1.111       .  S
C2021      C2022   1.410       .  A
C2021      C2026   1.401       .  A
C2021      H2028   1.083       .  S
C2022      C2023   1.418       .  A
C2023      C2024   1.403       .  A
C2023      C2030   1.508       .  S
C2024      C2025   1.405       .  A
C2024      H2029   1.084       .  S
C2025      C2026   1.412       .  A
C2026      C2027   1.510       .  S
C2027      H2031   1.111       .  S
C2027      H2032   1.107       .  S
C2027      H2033   1.110       .  S
C2030      H2034   1.110       .  S
C2030      H2035   1.108       .  S
C2030      H2036   1.111       .  S
C2037      C2038   1.412       .  A
C2037      C2042   1.405       .  A
C2037      H2044   1.082       .  S
C2038      C2039   1.431       .  A
C2039      C2040   1.404       .  A
C2039      C2046   1.511       .  S
C2040      C2041   1.398       .  A
C2040      H2045   1.085       .  S
C2041      C2042   1.412       .  A
C2043      H2047   1.111       .  S
C2043      H2048   1.106       .  S
C2043      H2049   1.110       .  S
C2046      H2050   1.107       .  S
C2046      H2051   1.110       .  S
C2046      H2052   1.111       .  S
C2053      C2054   1.400       .  A
C2053      C2058   1.403       .  A
C2053      H2060   1.085       .  S
C2054      C2055   1.414       .  A
C2055      C2056   1.404       .  A
C2055      C2062   1.509       .  S
C2056      C2057   1.414       .  A
C2056      H2061   1.082       .  S
C2057      C2058   1.430       .  A
C2058      C2059   1.511       .  S
C2059      H2063   1.111       .  S
C2059      H2064   1.110       .  S
C2059      H2065   1.108       .  S
C2062      H2066   1.107       .  S
C2062      H2067   1.110       .  S
C2062      H2068   1.111       .  S
C2069      C2070   1.409       .  A
C2069      C2074   1.405       .  A
C2069      H2076   1.084       .  S
C2070      C2071   1.425       .  A
C2071      C2072   1.398       .  A
C2071      C2078   1.512   1_655  S
C2072      C2073   1.399       .  A
C2073      C2074   1.413       .  A
C2074      C2075   1.508       .  S
C2075      H2079   1.111       .  S
C2075      H2080   1.110       .  S
C2075      H2081   1.106       .  S
C2078      H2082   1.110   1_455  S
C2078      H2083   1.107       .  S
C2085      C2086   1.409       .  A
C2085      C2090   1.402       .  A
C2085      H2092   1.083       .  S
C2086      C2087   1.424       .  A
C2087      C2088   1.399       .  A
C2087      C2094   1.512   1_545  S
C2088      C2089   1.400       .  A
C2088      H2841   1.085   1_545  S
C2089      C2090   1.413       .  A
C2090      C2091   1.508       .  S
C2091      H2095   1.111       .  S
C2091      H2096   1.107       .  S
C2091      H2097   1.110       .  S
H2093      C2836   1.085       .  S
C2094      H2098   1.107       .  S
C2094      H2099   1.110       .  S
C2094      H2848   1.111       .  S
H2100      C2842   1.111       .  S
C2101      C2102   1.405       .  A
C2101      C2106   1.408       .  A
C2101      H2108   1.084       .  S
C2102      C2103   1.412       .  A
C2103      C2104   1.396       .  A
C2103      C2110   1.509       .  S
C2104      C2105   1.407       .  A
C2104      H2109   1.084       .  S
C2105      C2106   1.417       .  A
C2106      C2107   1.509       .  S
C2107      H2111   1.111       .  S
C2107      H2112   1.111       .  S
C2107      H2113   1.106       .  S
C2110      H2114   1.109       .  S
C2110      H2115   1.110       .  S
C2110      H2116   1.111       .  S
C2117      C2118   1.403       .  A
C2117      C2122   1.405       .  A
C2117      H2872   1.084       .  S
C2118      C2119   1.414       .  A
C2119      C2120   1.400       .  A
C2119      C2126   1.510       .  S
C2120      C2121   1.407       .  A
C2120      H2125   1.083       .  S
C2121      C2122   1.419       .  A
C2122      C2123   1.507       .  S
C2123      H2127   1.111       .  S
C2123      H2128   1.108       .  S
C2123      H2129   1.110       .  S
H2124      C2865   1.084       .  S
C2126      H2130   1.110       .  S
C2126      H2131   1.108       .  S
C2126      H2132   1.111       .  S
C2133      C2134   1.413       .  A
C2133      C2138   1.408       .  A
C2133      H2140   1.081       .  S
C2134      C2135   1.428       .  A
C2135      C2136   1.401       .  A
C2135      C2142   1.513       .  S
C2136      C2137   1.399       .  A
C2136      H2141   1.085       .  S
C2137      C2138   1.413       .  A
C2138      C2139   1.509       .  S
C2139      H2143   1.111       .  S
C2139      H2144   1.107       .  S
C2139      H2145   1.110       .  S
C2142      H2146   1.110       .  S
C2142      H2147   1.107       .  S
C2142      H2148   1.111       .  S
C2149      C2150   1.403       .  A
C2149      C2154   1.401       .  A
C2149      H2156   1.085       .  S
C2150      C2151   1.416       .  A
C2151      C2152   1.408       .  A
C2151      C2158   1.507       .  S
C2152      C2153   1.409       .  A
C2152      H2157   1.084       .  S
C2153      C2154   1.421       .  A
C2154      C2155   1.512       .  S
C2155      H2159   1.111       .  S
C2155      H2160   1.110       .  S
C2155      H2161   1.106       .  S
C2158      H2910   1.107   1_545  S
C2158      H2163   1.110       .  S
C2158      H2164   1.111   1_545  S
H2162      C2906   1.107       .  S
C2165      C2166   1.409       .  A
C2165      C2170   1.403       .  A
C2165      H2172   1.083       .  S
C2166      C2167   1.426       .  A
C2167      C2168   1.400       .  A
C2167      C2174   1.513       .  S
C2168      C2169   1.399       .  A
C2168      H2173   1.085       .  S
C2169      C2170   1.411       .  A
C2170      C2171   1.508       .  S
C2171      H2175   1.111       .  S
C2171      H2176   1.110       .  S
C2171      H2177   1.108       .  S
C2174      H2178   1.110       .  S
C2174      H2179   1.107       .  S
C2174      H2180   1.111       .  S
C2181      C2182   1.411       .  A
C2181      C2186   1.400       .  A
C2181      H2188   1.081       .  S
C2182      C2183   1.422       .  A
C2183      C2184   1.403       .  A
C2183      C2190   1.508       .  S
C2184      C2185   1.401       .  A
C2185      C2186   1.411       .  A
C2186      C2187   1.510       .  S
C2187      H2191   1.111       .  S
C2187      H2192   1.110       .  S
C2187      H2193   1.107       .  S
C2190      H2194   1.108       .  S
C2190      H2195   1.110       .  S
C2197      C2198   1.401       .  A
C2197      C2202   1.401       .  A
C2197      H2204   1.085       .  S
C2198      C2199   1.413       .  A
C2199      C2200   1.405       .  A
C2199      C2206   1.507       .  S
C2200      C2201   1.405       .  A
C2200      H2205   1.084       .  S
C2201      C2202   1.420       .  A
C2202      C2203   1.511       .  S
C2203      H2207   1.111       .  S
C2203      H2208   1.107       .  S
C2203      H2209   1.110       .  S
C2206      H2210   1.107       .  S
C2206      H2211   1.110       .  S
C2206      H2212   1.111       .  S
C2213      C2214   1.406       .  A
C2213      C2218   1.408       .  A
C2213      H2220   1.084       .  S
C2214      C2215   1.419       .  A
C2215      C2216   1.402       .  A
C2215      C2222   1.510       .  S
C2216      C2217   1.403       .  A
C2216      H2221   1.084       .  S
C2217      C2218   1.416       .  A
C2218      C2219   1.508       .  S
C2219      H2223   1.111       .  S
C2219      H2224   1.107       .  S
C2219      H2225   1.110       .  S
C2222      H2226   1.107       .  S
C2222      H2227   1.111       .  S
C2222      H2228   1.111       .  S
C2229      C2230   1.408       .  A
C2229      C2234   1.402       .  A
C2229      H2236   1.084       .  S
C2230      C2231   1.422       .  A
C2231      C2232   1.397       .  A
C2231      C2238   1.513   1_655  S
C2232      C2233   1.402       .  A
C2233      C2234   1.413       .  A
C2234      C2235   1.507       .  S
C2235      H2239   1.111       .  S
C2235      H2240   1.110       .  S
C2235      H2241   1.107       .  S
C2238      H2242   1.107       .  S
C2238      H2243   1.110       .  S
C2245      C2246   1.401       .  A
C2245      C2250   1.410       .  A
C2245      C2978   1.492       .  S
C2246      C2247   1.397       .  A
C2246      H2251   1.079       .  S
C2247      C2248   1.397       .  A
C2247      C2281   1.468       .  S
C2248      C2249   1.402       .  A
C2248      H2252   1.083       .  S
C2249      C2250   1.404       .  A
C2249      C2400   1.473       .  S
C2250      H2253   1.082       .  S
C2254      C2255   1.408       .  A
C2254      C2259   1.408       .  A
C2254      C2962   1.491       .  S
C2255      C2256   1.403       .  A
C2255      H2260   1.082       .  S
C2256      C2257   1.401       .  A
C2256      C2311   1.471       .  S
C2257      C2258   1.400       .  A
C2257      H2261   1.085       .  S
C2258      C2259   1.403       .  A
C2258      C2370   1.471       .  S
C2259      H2262   1.084       .  S
C2263      C2264   1.405       .  A
C2263      C2268   1.404       .  A
C2263      C2949   1.486       .  S
C2264      C2265   1.401       .  A
C2264      H2269   1.084       .  S
C2265      C2266   1.402       .  A
C2265      C2410   1.471       .  S
C2266      C2267   1.405       .  A
C2266      H2270   1.084       .  S
C2267      C2268   1.402       .  A
C2267      C2331   1.471       .  S
C2268      H2271   1.082       .  S
C2272      C2273   1.406       .  A
C2272      C2277   1.408       .  A
C2272      C2930   1.501       .  S
C2273      C2274   1.404       .  A
C2273      H2278   1.081       .  S
C2274      C2275   1.401       .  A
C2274      C2420   1.477       .  S
C2275      C2276   1.406       .  A
C2275      H2279   1.084       .  S
C2276      C2277   1.404       .  A
C2276      C2321   1.477       .  S
C2277      H2280   1.080       .  S
C2281      C2318   1.458       .  S
N2282      N2299   1.321       .  A
N2282     Co2319   2.075       .  S
C2283      H2328   1.081       .  S
H2284      C2325   1.081       .  S
C2285      C2289   1.458       .  S
C2285      H2314   1.080       .  S
C2285      N2309   1.331       .  A
Co2286     N2304   2.074       .  S
Co2286     N2294   2.080       .  S
Co2286     N2326   2.073   1_565  S
Co2286     N2302   2.080   1_565  S
N2287      C2325   1.345       .  A
N2287     Co2288   2.091       .  S
Co2288     N2291   2.089       .  S
Co2288     N2308   2.083   1_565  S
Co2288     N2295   2.090       .  S
Co2288    Cl2330   2.478       .  S
C2289      C2336   1.481       .  S
C2289      N2327   1.355       .  A
N2290      N2297   1.319       .  A
N2290      N2320   1.322       .  A
N2290     Co2323   2.077       .  S
N2291      N2309   1.318       .  A
N2291      N2327   1.329       .  A
N2292      C2321   1.349       .  A
H2293      C2318   1.081       .  S
N2294      N2315   1.322       .  A
N2295      N2313   1.320       .  A
C2296      C2324   1.456       .  S
C2296      C2365   1.470       .  S
C2296      N2300   1.352       .  A
N2297      C2312   1.344       .  A
N2297     Co2319   2.091       .  S
C2298      C2301   1.453       .  S
C2298      H2332   1.082       .  S
C2301      C2347   1.471       .  S
N2303      N2305   1.320       .  A
N2303     Co2319   2.085       .  S
N2304      C2318   1.339       .  A
N2305     Co2323   2.078       .  S
H2306      C2329   1.082       .  S
H2307      C2324   1.082       .  S
N2309     Co2323   2.071       .  S
N2310     Co2319   2.095       .  S
C2311      N2315   1.347       .  A
C2312      C2331   1.466       .  S
C2312      H2316   1.082       .  S
N2313     Co2323   2.078       .  S
C2317      C2329   1.463       .  S
C2317      C2354   1.474       .  S
C2317      N2333   1.347       .  A
Co2319    Cl2330   2.475       .  S
N2320      C2331   1.347       .  A
Co2323    Cl2330   2.421       .  S
C2334      C2335   1.416       .  A
C2334      C2339   1.404       .  A
C2334      C2914   1.495       .  S
C2335      C2336   1.406       .  A
C2335      H2340   1.083       .  S
C2336      C2337   1.401       .  A
C2337      C2338   1.394       .  A
C2337      H2341   1.079       .  S
C2338      C2339   1.396       .  A
C2338      C2390   1.470       .  S
C2339      H2342   1.079       .  S
C2343      C2344   1.410       .  A
C2343      C2348   1.412       .  A
C2343      C2901   1.496       .  S
C2344      C2345   1.402       .  A
C2344      H2349   1.081       .  S
C2345      C2346   1.396       .  A
C2345      C2378   1.472       .  S
C2346      C2347   1.398       .  A
C2346      H2350   1.085       .  S
C2347      C2348   1.405       .  A
C2348      H2351   1.084       .  S
C2352      C2353   1.406       .  A
C2352      C2357   1.416       .  A
C2352      C2882   1.504       .  S
C2353      C2354   1.397       .  A
C2353      H2358   1.081       .  S
C2354      C2355   1.399       .  A
C2355      C2356   1.403       .  A
C2355      H2359   1.082       .  S
C2356      C2357   1.410       .  A
C2356      C2385   1.484       .  S
C2357      H2360   1.082       .  S
C2361      C2362   1.410       .  A
C2361      C2366   1.407       .  A
C2361      C2869   1.493       .  S
C2362      C2363   1.403       .  A
C2362      H2367   1.084       .  S
C2363      C2364   1.401       .  A
C2363      C2406   1.472       .  S
C2364      C2365   1.400       .  A
C2364      H2368   1.085       .  S
C2365      C2366   1.401       .  A
C2366      H2369   1.083       .  S
C2370      C2407   1.456       .  S
C2370      N2388   1.352       .  A
N2371      N2388   1.327       .  A
N2371      N2393   1.320       .  A
N2371     Co2408   2.090       .  S
C2372      C2410   1.461       .  S
C2372      H2417   1.082       .  S
C2372      N2397   1.342       .  A
H2373      C2414   1.081       .  S
C2374      C2378   1.458       .  S
C2374      H2403   1.082       .  S
C2374      N2398   1.337       .  A
Co2375     N2393   2.078       .  S
Co2375     N2383   2.077       .  S
Co2375     N2415   2.076       .  S
Co2375     N2391   2.083       .  S
Co2375    Cl2419   2.430       .  S
N2376      C2414   1.342       .  A
N2376      N2383   1.319       .  A
N2376     Co2377   2.079       .  S
Co2377     N2380   2.087       .  S
Co2377     N2397   2.089       .  S
Co2377     N2384   2.083       .  S
Co2377    Cl2419   2.471       .  S
C2378      N2416   1.350       .  A
N2379      N2386   1.320       .  A
N2379      N2409   1.329       .  A
N2379     Co2412   2.100       .  S
N2380      N2398   1.321       .  A
N2380      N2416   1.327       .  A
N2381      C2410   1.348       .  A
N2381      N2391   1.324       .  A
H2382      C2407   1.082       .  S
N2383      N2404   1.321       .  A
N2384      N2402   1.320       .  A
N2384      N2389   1.327       .  A
C2385      C2413   1.464       .  S
C2385      N2389   1.352       .  A
N2386      C2401   1.335       .  A
N2386     Co2408   2.069       .  S
C2387      C2390   1.459       .  S
C2387      H2421   1.081       .  S
C2387      N2415   1.337       .  A
C2390      N2411   1.348       .  A
N2391      N2397   1.320       .  A
N2392      C2418   1.344       .  A
N2392      N2394   1.320       .  A
N2392     Co2408   2.087       .  S
N2393      C2407   1.338       .  A
N2394      N2422   1.323       .  A
N2394     Co2412   2.086       .  S
H2395      C2418   1.082       .  S
H2396      C2413   1.081       .  S
N2398     Co2412   2.084       .  S
N2399      N2411   1.322       .  A
N2399      N2415   1.319       .  A
N2399     Co2408   2.071       .  S
C2400      C2414   1.462       .  S
C2400      N2404   1.348       .  A
C2401      C2420   1.456       .  S
C2401      H2405   1.081       .  S
N2402      C2413   1.339       .  A
N2402     Co2412   2.094       .  S
C2406      C2418   1.462       .  S
C2406      N2422   1.349       .  A
Co2408    Cl2419   2.466       .  S
N2409      C2420   1.354       .  A
Co2412    Cl2419   2.433       .  S
N2423      C2428   1.355       .  A
N2423      C2427   1.353       .  A
N2423      H2455   1.037       .  S
N2425      C2430   1.353       .  A
N2425      C2429   1.352       .  A
N2425      H2456   1.039       .  S
N2426      C2433   1.349       .  A
N2426      C2434   1.348       .  A
C2427      C2435   1.392       .  A
C2428      C2444   1.416       .  A
C2428      C2436   1.384       .  A
C2429      C2437   1.386       .  A
C2430      C2445   1.414       .  A
C2430      C2438   1.387       .  A
C2431      C2443   1.415       .  A
C2431      C2439   1.387       .  A
C2432      C2446   1.414       .  A
C2432      C2440   1.386       .  A
C2433      C2441   1.384       .  A
C2433      C2444   1.406       .  A
C2434      C2442   1.387       .  A
C2434      C2445   1.409       .  A
C2435      C2436   1.367       .  A
C2435      H2447   1.079       .  S
C2436      H2448   1.082       .  S
C2437      C2438   1.376       .  A
C2437      H2449   1.083       .  S
C2438      H2450   1.082       .  S
C2439      C2440   1.376       .  A
C2439      H2451   1.082       .  S
C2440      H2452   1.082       .  S
C2441      C2442   1.376       .  A
C2441      H2453   1.082       .  S
C2442      H2454   1.082       .  S
C2443      C2837   1.488       .  S
C2444      C2850   1.491       .  S
C2445      C2946   1.488       .  S
C2446      C2898   1.498       .  S
N2457      C2462   1.355       .  A
N2457      C2461   1.352       .  A
N2457      H2489   1.030       .  S
N2458      C2465   1.352   1_556  A
N2458      C2466   1.352       .  A
N2459      C2464   1.355       .  A
N2459      C2463   1.357       .  A
N2459      H2490   1.033       .  S
N2460      C2467   1.351   1_556  A
N2460      C2468   1.349       .  A
C2461      C2469   1.389       .  A
C2461      C2477   1.421       .  A
C2462      C2470   1.388       .  A
C2463      C2471   1.392       .  A
C2463      C2480   1.430       .  A
C2464      C2472   1.385       .  A
C2465      C2477   1.416       .  A
C2465      C2473   1.385       .  A
C2466      C2480   1.421       .  A
C2466      C2474   1.388       .  A
C2467      C2475   1.386       .  A
C2467      C2478   1.414       .  A
C2468      C2476   1.386       .  A
C2468      C2479   1.413       .  A
C2469      C2470   1.367       .  A
C2469      H2481   1.082       .  S
C2470      H2482   1.081       .  S
C2471      C2472   1.370       .  A
C2471      H2483   1.080       .  S
C2472      H2484   1.082       .  S
C2473      C2474   1.372   1_554  A
C2473      H2485   1.082       .  S
C2474      H2486   1.081       .  S
C2475      C2476   1.371   1_554  A
C2475      H2487   1.081       .  S
C2476      H2488   1.082       .  S
C2477      C2917   1.489       .  S
C2478      C2933   1.490       .  S
C2479      C2821   1.492       .  S
C2480      C2802   1.501       .  S
N2491      C2496   1.355       .  A
N2491      C2495   1.353       .  A
N2491      H2523   1.028       .  S
N2493      C2498   1.357       .  A
N2493      C2497   1.359       .  A
N2493      H2524   1.034       .  S
N2494      C2501   1.353       .  A
N2494      C2502   1.350       .  A
C2495      C2503   1.389       .  A
C2496      C2512   1.424       .  A
C2496      C2504   1.389       .  A
C2497      C2505   1.389       .  A
C2498      C2513   1.424       .  A
C2498      C2506   1.387       .  A
C2499      C2511   1.414       .  A
C2499      C2507   1.385       .  A
C2500      C2514   1.416       .  A
C2500      C2508   1.388       .  A
C2501      C2509   1.384       .  A
C2501      C2512   1.417       .  A
C2502      C2510   1.388       .  A
C2502      C2513   1.419       .  A
C2503      C2504   1.363       .  A
C2503      H2515   1.082       .  S
C2504      H2516   1.081       .  S
C2505      C2506   1.370       .  A
C2505      H2517   1.081       .  S
C2506      H2518   1.082       .  S
C2507      C2508   1.370       .  A
C2507      H2519   1.082       .  S
C2508      H2520   1.082       .  S
C2509      C2510   1.371       .  A
C2509      H2521   1.082       .  S
C2510      H2522   1.082       .  S
C2511      C2981   1.488       .  S
C2512      C2885   1.497       .  S
C2513      C2773   1.495       .  S
C2514      C2789   1.495       .  S
N2525      C2530   1.354       .  A
N2525      C2529   1.350       .  A
N2525      H2557   1.038       .  S
N2526      C2533   1.348   1_554  A
N2526      C2534   1.349       .  A
N2527      C2532   1.351       .  A
N2527      C2531   1.354       .  A
N2527      H2558   1.040       .  S
C2529      C2537   1.384       .  A
C2529      C2545   1.410       .  A
C2530      C2538   1.391       .  A
C2531      C2539   1.387       .  A
C2531      C2548   1.417       .  A
C2532      C2540   1.387       .  A
C2533      C2545   1.407       .  A
C2533      C2541   1.385       .  A
C2534      C2548   1.411       .  A
C2534      C2542   1.386       .  A
C2535      C2543   1.387       .  A
C2535      C2546   1.416       .  A
C2536      C2544   1.386       .  A
C2536      C2547   1.414       .  A
C2537      C2538   1.369       .  A
C2537      H2549   1.083       .  S
C2538      H2550   1.078       .  S
C2539      C2540   1.378       .  A
C2539      H2551   1.082       .  S
C2540      H2552   1.082       .  S
C2541      C2542   1.377   1_556  A
C2541      H2553   1.082       .  S
C2542      H2554   1.082       .  S
C2543      C2544   1.376   1_556  A
C2543      H2555   1.081       .  S
C2544      H2556   1.082       .  S
C2545      C2754   1.484       .  S
C2546      C2741   1.494       .  S
C2547      C2866   1.492       .  S
C2548      C2965   1.496       .  S
C2559      C2560   1.406       .  A
C2559      C2564   1.402       .  A
C2559      C2757   1.484       .  S
C2560      C2561   1.405       .  A
C2560      H2565   1.083       .  S
C2561      C2562   1.405       .  A
C2561      C2613   1.478       .  S
C2562      C2563   1.401       .  A
C2562      H2566   1.082       .  S
C2563      C2564   1.398       .  A
C2563      C2714   1.472       .  S
C2564      H2567   1.083       .  S
C2568      C2569   1.411       .  A
C2568      C2573   1.406       .  A
C2568      C2818   1.494       .  S
C2569      C2570   1.403       .  A
C2569      H2574   1.083       .  S
C2570      C2571   1.397       .  A
C2570      C2633   1.467       .  S
C2571      C2572   1.396       .  A
C2571      H2575   1.085       .  S
C2572      C2573   1.400       .  A
C2572      C2692   1.468       .  S
C2573      H2576   1.080       .  S
C2577      C2578   1.408       .  A
C2577      C2582   1.415       .  A
C2577      C2738   1.507       .  S
C2578      C2579   1.399       .  A
C2578      H2583   1.081       .  S
C2579      C2580   1.397       .  A
C2579      C2699   1.474       .  S
C2580      C2581   1.403       .  A
C2580      H2584   1.083       .  S
C2581      C2582   1.408       .  A
C2581      C2649   1.481       .  S
C2582      H2585   1.080       .  S
C2586      C2587   1.410       .  A
C2586      C2591   1.414       .  A
C2586      C2805   1.512       .  S
C2587      C2588   1.404       .  A
C2587      H2592   1.075       .  S
C2588      C2589   1.401       .  A
C2588      C2724   1.474       .  S
C2589      C2590   1.399       .  A
C2589      H2593   1.084       .  S
C2590      C2591   1.400       .  A
C2590      C2663   1.470       .  S
C2591      H2594   1.081       .  S
C2595      C2596   1.408       .  A
C2595      C2600   1.409       .  A
C2595      C2770   1.494       .  S
C2596      C2597   1.401       .  A
C2596      H2601   1.083       .  S
C2597      C2598   1.402       .  A
C2597      C2628   1.471       .  S
C2598      C2599   1.399       .  A
C2598      H2602   1.084       .  S
C2599      C2600   1.400       .  A
C2599      C2720   1.470       .  S
C2600      H2603   1.083       .  S
C2604      C2605   1.408       .  A
C2604      C2609   1.399       .  A
C2604      C2834   1.497       .  S
C2605      C2606   1.408       .  A
C2605      H2610   1.080       .  S
C2606      C2607   1.404       .  A
C2606      C2653   1.478       .  S
C2607      C2608   1.402       .  A
C2607      H2611   1.084       .  S
C2608      C2609   1.397       .  A
C2608      C2734   1.470       .  S
C2609      H2612   1.081       .  S
C2613      C2650   1.459       .  S
C2613      N2631   1.353       .  A
N2614      N2631   1.326       .  A
N2614      N2636   1.321       .  A
N2614     Co2651   2.088       .  S
C2615      C2653   1.458       .  S
C2615      H2660   1.081       .  S
C2615      N2640   1.336       .  A
H2616      C2657   1.082       .  S
C2617      C2621   1.463       .  S
C2617      H2646   1.081       .  S
C2617      N2641   1.336       .  A
Co2618     N2636   2.082       .  S
Co2618     N2626   2.078       .  S
Co2618     N2658   2.072       .  S
Co2618     N2634   2.094       .  S
Co2618    Cl2662   2.422       .  S
N2619      C2657   1.345       .  A
N2619      N2626   1.319       .  A
N2619     Co2620   2.089       .  S
Co2620     N2623   2.081       .  S
Co2620     N2640   2.069       .  S
Co2620     N2627   2.090       .  S
Co2620    Cl2662   2.476       .  S
C2621      C2679   1.482       .  S
C2621      N2659   1.352       .  A
N2622      N2629   1.320       .  A
N2622      N2652   1.323       .  A
N2622     Co2655   2.070       .  S
N2623      N2641   1.319       .  A
N2623      N2659   1.328       .  A
N2624      C2653   1.353       .  A
N2624      N2634   1.326       .  A
H2625      C2650   1.081       .  S
N2626      N2647   1.321       .  A
N2627      N2645   1.317       .  A
N2627      N2632   1.326       .  A
C2628      C2656   1.455       .  S
C2628      N2632   1.354       .  A
N2629      C2644   1.343       .  A
N2629     Co2651   2.097       .  S
C2630      C2633   1.452       .  S
C2630      H2664   1.082       .  S
C2630      N2658   1.335       .  A
C2633      N2654   1.351       .  A
N2634      N2640   1.319       .  A
N2635      C2661   1.345       .  A
N2635      N2637   1.319       .  A
N2635     Co2651   2.086       .  S
N2636      C2650   1.337       .  A
N2637      N2665   1.322       .  A
N2637     Co2655   2.086       .  S
H2638      C2661   1.081       .  S
H2639      C2656   1.082       .  S
N2641     Co2655   2.088       .  S
N2642      N2654   1.327       .  A
N2642      N2658   1.320       .  A
N2642     Co2651   2.089       .  S
C2643      C2657   1.466       .  S
C2643      C2670   1.473       .  S
C2643      N2647   1.348       .  A
C2644      C2663   1.465       .  S
C2644      H2648   1.082       .  S
N2645      C2656   1.336       .  A
N2645     Co2655   2.067       .  S
C2649      C2661   1.465       .  S
C2649      N2665   1.350       .  A
Co2651    Cl2662   2.476       .  S
N2652      C2663   1.345       .  A
Co2655    Cl2662   2.421       .  S
C2666      C2667   1.416       .  A
C2666      C2671   1.410       .  A
C2666      C2786   1.508       .  S
C2667      C2668   1.403       .  A
C2667      H2672   1.082       .  S
C2668      C2669   1.398       .  A
C2668      C2684   1.474       .  S
C2669      C2670   1.400       .  A
C2669      H2673   1.085       .  S
C2670      C2671   1.402       .  A
C2671      H2674   1.077       .  S
C2675      C2676   1.404       .  A
C2675      C2680   1.414       .  A
C2675      C2853   1.490       .  S
C2676      C2677   1.395       .  A
C2676      H2681   1.084       .  S
C2677      C2678   1.396       .  A
C2677      C2704   1.468       .  S
C2678      C2679   1.400       .  A
C2678      H2682   1.080       .  S
C2679      C2680   1.409       .  A
C2680      H2683   1.081       .  S
C2684      C2721   1.456       .  S
C2684      N2702   1.352       .  A
N2685      N2702   1.327       .  A
N2685      N2707   1.322       .  A
C2686      C2724   1.464       .  S
C2686      H2731   1.082       .  S
C2686      N2711   1.343       .  A
H2687      C2728   1.081       .  S
C2688      C2692   1.459       .  S
C2688      H2717   1.082       .  S
C2688      N2712   1.337       .  A
Co2689     N2729   2.065       .  S
Co2689     N2705   2.088       .  S
Co2689    Cl2733   2.431       .  S
N2690      C2728   1.338       .  A
N2690      N2697   1.318       .  A
Co2691     N2711   2.085       .  S
Co2691    Cl2733   2.465       .  S
C2692      N2730   1.350       .  A
N2693      N2700   1.319       .  A
N2693      N2723   1.325       .  A
N2694      N2712   1.320       .  A
N2694      N2730   1.325       .  A
N2695      C2724   1.350       .  A
N2695      N2705   1.323       .  A
H2696      C2721   1.082       .  S
N2697      N2718   1.323       .  A
N2698      N2716   1.318       .  A
N2698      N2703   1.322       .  A
C2699      C2727   1.461       .  S
C2699      N2703   1.349       .  A
N2700      C2715   1.335       .  A
C2701      C2704   1.455       .  S
C2701      H2735   1.081       .  S
C2701      N2729   1.334       .  A
C2704      N2725   1.350       .  A
N2705      N2711   1.319       .  A
N2706      C2732   1.343       .  A
N2706      N2708   1.322       .  A
N2707      C2721   1.339       .  A
N2708      N2736   1.323       .  A
N2708     Co2726   2.083       .  S
H2709      C2732   1.082       .  S
H2710      C2727   1.081       .  S
N2713      N2725   1.323       .  A
N2713      N2729   1.318       .  A
N2713     Co2722   2.075       .  S
C2714      C2728   1.459       .  S
C2714      N2718   1.349       .  A
C2715      C2734   1.460       .  S
C2715      H2719   1.081       .  S
N2716      C2727   1.341       .  A
N2716     Co2726   2.079       .  S
C2720      C2732   1.461       .  S
C2720      N2736   1.348       .  A
Co2722    Cl2733   2.463       .  S
N2723      C2734   1.348       .  A
C2737      C2738   1.414       .  A
C2737      C2742   1.400       .  A
C2737      H2744   1.081       .  S
C2738      C2739   1.422       .  A
C2739      C2740   1.405       .  A
C2739      C2746   1.508       .  S
C2740      C2741   1.403       .  A
C2740      H2745   1.084       .  S
C2741      C2742   1.412       .  A
C2743      H2747   1.110       .  S
C2743      H2748   1.109       .  S
C2743      H2749   1.110       .  S
C2746      H2750   1.108       .  S
C2746      H2751   1.110       .  S
C2746      H2752   1.111       .  S
C2753      C2754   1.402       .  A
C2753      C2758   1.403       .  A
C2753      H2760   1.084       .  S
C2754      C2755   1.413       .  A
C2755      C2756   1.397       .  A
C2755      C2762   1.510       .  S
C2756      C2757   1.405       .  A
C2756      H2761   1.084       .  S
C2757      C2758   1.418       .  A
C2758      C2759   1.507       .  S
C2759      H2763   1.111       .  S
C2759      H2764   1.107       .  S
C2759      H2765   1.110       .  S
C2762      H2766   1.110       .  S
C2762      H2767   1.108       .  S
C2762      H2768   1.111       .  S
C2769      C2770   1.410       .  A
C2769      C2774   1.401       .  A
C2769      H2776   1.083       .  S
C2770      C2771   1.417       .  A
C2771      C2772   1.402       .  A
C2771      C2778   1.508       .  S
C2772      C2773   1.405       .  A
C2772      H2777   1.084       .  S
C2773      C2774   1.413       .  A
C2774      C2775   1.510       .  S
C2775      H2779   1.111       .  S
C2775      H2780   1.107       .  S
C2775      H2781   1.110       .  S
C2778      H2782   1.110       .  S
C2778      H2783   1.108       .  S
C2778      H2784   1.111       .  S
C2785      C2786   1.412       .  A
C2785      C2790   1.405       .  A
C2785      H2792   1.083       .  S
C2786      C2787   1.430       .  A
C2787      C2788   1.403       .  A
C2787      C2794   1.511       .  S
C2788      C2789   1.398       .  A
C2788      H2793   1.085       .  S
C2789      C2790   1.412       .  A
C2791      H2795   1.111       .  S
C2791      H2796   1.107       .  S
C2791      H2797   1.110       .  S
C2794      H2798   1.107       .  S
C2794      H2799   1.110       .  S
C2794      H2800   1.111       .  S
C2801      C2802   1.400       .  A
C2801      C2806   1.403       .  A
C2801      H2808   1.085       .  S
C2802      C2803   1.415       .  A
C2803      C2804   1.404       .  A
C2803      C2810   1.509       .  S
C2804      C2805   1.414       .  A
C2804      H2809   1.082       .  S
C2805      C2806   1.430       .  A
C2806      C2807   1.511       .  S
C2807      H2811   1.111       .  S
C2807      H2812   1.110       .  S
C2807      H2813   1.108       .  S
C2810      H2814   1.107       .  S
C2810      H2815   1.110       .  S
C2810      H2816   1.111       .  S
C2817      C2818   1.409       .  A
C2817      C2822   1.405       .  A
C2817      H2824   1.084       .  S
C2818      C2819   1.425       .  A
C2819      C2820   1.398       .  A
C2819      C2826   1.512   1_655  S
C2820      C2821   1.399       .  A
C2821      C2822   1.413       .  A
C2822      C2823   1.508       .  S
C2823      H2827   1.111       .  S
C2823      H2828   1.110       .  S
C2823      H2829   1.106       .  S
C2826      H2830   1.110   1_455  S
C2826      H2831   1.107       .  S
C2833      C2834   1.409       .  A
C2833      C2838   1.402       .  A
C2833      H2840   1.083       .  S
C2834      C2835   1.424       .  A
C2835      C2836   1.399       .  A
C2835      C2842   1.512       .  S
C2836      C2837   1.400       .  A
C2837      C2838   1.413       .  A
C2838      C2839   1.508       .  S
C2839      H2843   1.111       .  S
C2839      H2844   1.107       .  S
C2839      H2845   1.110       .  S
C2842      H2846   1.107       .  S
C2842      H2847   1.110       .  S
C2849      C2850   1.405       .  A
C2849      C2854   1.408       .  A
C2849      H2856   1.084       .  S
C2850      C2851   1.412       .  A
C2851      C2852   1.396       .  A
C2851      C2858   1.509       .  S
C2852      C2853   1.407       .  A
C2852      H2857   1.084       .  S
C2853      C2854   1.417       .  A
C2854      C2855   1.509       .  S
C2855      H2859   1.111       .  S
C2855      H2860   1.111       .  S
C2855      H2861   1.106       .  S
C2858      H2862   1.109       .  S
C2858      H2863   1.110       .  S
C2858      H2864   1.111       .  S
C2865      C2866   1.403       .  A
C2865      C2870   1.405       .  A
C2866      C2867   1.414       .  A
C2867      C2868   1.400       .  A
C2867      C2874   1.510       .  S
C2868      C2869   1.407       .  A
C2868      H2873   1.083       .  S
C2869      C2870   1.419       .  A
C2870      C2871   1.507       .  S
C2871      H2875   1.111       .  S
C2871      H2876   1.108       .  S
C2871      H2877   1.110       .  S
C2874      H2878   1.110       .  S
C2874      H2879   1.108       .  S
C2874      H2880   1.111       .  S
C2881      C2882   1.411       .  A
C2881      C2886   1.408       .  A
C2881      H2888   1.082       .  S
C2882      C2883   1.426       .  A
C2883      C2884   1.399       .  A
C2883      C2890   1.512       .  S
C2884      C2885   1.400       .  A
C2884      H2889   1.085       .  S
C2885      C2886   1.414       .  A
C2886      C2887   1.508       .  S
C2887      H2891   1.111       .  S
C2887      H2892   1.106       .  S
C2887      H2893   1.110       .  S
C2890      H2894   1.110       .  S
C2890      H2895   1.107       .  S
C2890      H2896   1.111       .  S
C2897      C2898   1.403       .  A
C2897      C2902   1.401       .  A
C2897      H2904   1.085       .  S
C2898      C2899   1.416       .  A
C2899      C2900   1.408       .  A
C2899      C2906   1.507       .  S
C2900      C2901   1.409       .  A
C2900      H2905   1.084       .  S
C2901      C2902   1.421       .  A
C2902      C2903   1.512       .  S
C2903      H2907   1.111       .  S
C2903      H2908   1.110       .  S
C2903      H2909   1.106       .  S
C2906      H2911   1.110       .  S
C2906      H2912   1.111       .  S
C2913      C2914   1.409       .  A
C2913      C2918   1.403       .  A
C2913      H2920   1.083       .  S
C2914      C2915   1.426       .  A
C2915      C2916   1.400       .  A
C2915      C2922   1.513       .  S
C2916      C2917   1.399       .  A
C2916      H2921   1.085       .  S
C2917      C2918   1.411       .  A
C2918      C2919   1.508       .  S
C2919      H2923   1.111       .  S
C2919      H2924   1.110       .  S
C2919      H2925   1.108       .  S
C2922      H2926   1.110       .  S
C2922      H2927   1.107       .  S
C2922      H2928   1.111       .  S
C2929      C2930   1.411       .  A
C2929      C2934   1.400       .  A
C2929      H2936   1.081       .  S
C2930      C2931   1.422       .  A
C2931      C2932   1.403       .  A
C2931      C2938   1.508       .  S
C2932      C2933   1.401       .  A
C2933      C2934   1.411       .  A
C2934      C2935   1.510       .  S
C2935      H2939   1.111       .  S
C2935      H2940   1.110       .  S
C2935      H2941   1.107       .  S
C2938      H2942   1.108       .  S
C2938      H2943   1.110       .  S
C2945      C2946   1.401       .  A
C2945      C2950   1.401       .  A
C2945      H2952   1.085       .  S
C2946      C2947   1.413       .  A
C2947      C2948   1.405       .  A
C2947      C2954   1.507       .  S
C2948      C2949   1.405       .  A
C2948      H2953   1.084       .  S
C2949      C2950   1.420       .  A
C2950      C2951   1.511       .  S
C2951      H2955   1.111       .  S
C2951      H2956   1.107       .  S
C2951      H2957   1.110       .  S
C2954      H2958   1.107       .  S
C2954      H2959   1.110       .  S
C2954      H2960   1.111       .  S
C2961      C2962   1.406       .  A
C2961      C2966   1.408       .  A
C2961      H2968   1.084       .  S
C2962      C2963   1.419       .  A
C2963      C2964   1.402       .  A
C2963      C2970   1.510       .  S
C2964      C2965   1.403       .  A
C2964      H2969   1.084       .  S
C2965      C2966   1.416       .  A
C2966      C2967   1.508       .  S
C2967      H2971   1.111       .  S
C2967      H2972   1.107       .  S
C2967      H2973   1.110       .  S
C2970      H2974   1.107       .  S
C2970      H2975   1.111       .  S
C2970      H2976   1.111       .  S
C2977      C2978   1.409       .  A
C2977      C2982   1.401       .  A
C2977      H2984   1.084       .  S
C2978      C2979   1.423       .  A
C2979      C2980   1.397       .  A
C2979      C2986   1.513   1_655  S
C2980      C2981   1.401       .  A
C2981      C2982   1.412       .  A
C2982      C2983   1.507       .  S
C2983      H2987   1.111       .  S
C2983      H2988   1.110       .  S
C2983      H2989   1.107       .  S
C2986      H2990   1.107       .  S
C2986      H2991   1.110       .  S
