geometry optimzed in LAMMPS
_audit_creation_date              2020-11-30 
_audit_creation_method            'lammps2cif' 
_symmetry_space_group_name_H-M    'P1' 
_symmetry_Int_Tables_number       1 
_symmetry_cell_setting            triclinic 
loop_ 
_symmetry_equiv_pos_as_xyz 
  x,y,z 
_cell_length_a                    34.58591853170999 
_cell_length_b                    33.683968309889586 
_cell_length_c                    28.488240934040128 
_cell_angle_alpha                 90.4647540501822 
_cell_angle_beta                  90.05926220217127 
_cell_angle_gamma                 90.53431107094035 
loop_ 
_atom_site_label 
_atom_site_type_symbol 
_atom_site_fract_x 
_atom_site_fract_y 
_atom_site_fract_z 
_atom_site_charge 
O1          O  0.70088134  0.58820102  0.04992120    -0.57150
C2          C  0.65013039  0.63409305  0.16091052     0.75480
O3          O  0.71856388  0.51574116  0.17242040    -0.58310
C4          C  0.72402949  0.56119882  0.03732723     0.75450
C5          C  0.78139476  0.62483879  0.16566426     0.77840
Cd6        Cd  0.71317060  0.58290883  0.13443657     1.37460
O7          O  0.66574686  0.63597154  0.12081010    -0.57150
O8          O  0.76719664  0.62886041  0.12522880    -0.55960
C9          C  0.68343376  0.50732700  0.16363312     0.77800
O10         O  0.76454727  0.60009470  0.19219530    -0.58330
O11         O  0.66518565  0.61060481  0.18995128    -0.56780
O12         O  0.74288988  0.54502209  0.06992231    -0.56770
O13         O  0.66410339  0.53356543  0.14297262    -0.55950
O14         O  0.93389588  0.82345935  0.33512433    -0.57150
C15         C  0.87800150  0.87373906  0.22293109     0.75480
O16         O  0.99800158  0.81439039  0.20539997    -0.58310
C17         C  0.95959091  0.79776202  0.34315050     0.75450
C18         C  0.89189710  0.74446533  0.22492747     0.77840
Cd19       Cd  0.93486408  0.81536866  0.24901925     1.37460
O20         O  0.88357095  0.86402551  0.26526060    -0.57150
O21         O  0.88671889  0.76498327  0.26144691    -0.55960
C22         C  0.00738326  0.84949931  0.21780394     0.77800
O23         O  0.91896819  0.75635193  0.19816923    -0.58330
O24         O  0.89856404  0.85642157  0.19239561    -0.56780
O25         O  0.97321852  0.77993306  0.30772025    -0.56770
O26         O  0.98295917  0.86800717  0.24239426    -0.55950
O27         O  0.26603164  0.58312456  0.83394917    -0.57150
C28         C  0.31042518  0.63933255  0.72114447     0.75480
O29         O  0.25867661  0.51591324  0.70656311    -0.58310
C30         C  0.24278699  0.55520235  0.84390415     0.75450
C31         C  0.18416539  0.62073006  0.72235175     0.77840
Cd32       Cd  0.25372363  0.58118251  0.74926337     1.37470
O33         O  0.29770386  0.63810083  0.76279008    -0.57150
O34         O  0.20381708  0.62917213  0.75853845    -0.55960
C35         C  0.29372910  0.51127451  0.71878709     0.77800
O36         O  0.19532544  0.59109059  0.69828858    -0.58330
O37         O  0.29535419  0.61525949  0.69188759    -0.56780
O38         O  0.22300836  0.54044979  0.81057826    -0.56770
O39         O  0.30875927  0.53878298  0.74313273    -0.55950
O40         O  0.08876542  0.84982087  0.61522928    -0.57150
C41         C  0.00888811  0.78920133  0.53608969     0.75480
O42         O  0.04583736  0.75210180  0.69015656    -0.58310
C43         C  0.08859729  0.86674459  0.65506940     0.75450
C44         C  0.96333308  0.84470737  0.65814682     0.77840
Cd45       Cd  0.03331813  0.80465098  0.63113096     1.37460
O46         O  0.03882336  0.80978875  0.54548138    -0.57150
O47         O  0.98815958  0.85809526  0.62986795    -0.55960
C48         C  0.07038592  0.73432704  0.66472814     0.77800
O49         O  0.97027324  0.81072859  0.67522618    -0.58330
O50         O  0.99155214  0.77389890  0.57072807    -0.56780
O51         O  0.06457704  0.85359171  0.68466584    -0.56770
O52         O  0.07487183  0.74687817  0.62347219    -0.55950
O53         O  0.29594960  0.42470316  0.11762620    -0.57150
C54         C  0.24142687  0.50275469  0.03658294     0.75480
O55         O  0.19702355  0.46523862  0.18771251    -0.58310
C56         C  0.30921225  0.42318015  0.15898376     0.75450
C57         C  0.28956054  0.55265384  0.16329285     0.77840
Cd58       Cd  0.25200631  0.48011480  0.13319461     1.37460
O59         O  0.26401024  0.47523694  0.04867829    -0.57150
O60         O  0.30642092  0.52431491  0.14274757    -0.55960
C61         C  0.18254526  0.43916866  0.16035031     0.77800
O62         O  0.25399755  0.54717942  0.17265023    -0.58330
O63         O  0.22314019  0.51937643  0.06965510    -0.56780
O64         O  0.29420850  0.44603219  0.18922969    -0.56770
O65         O  0.19894849  0.43519665  0.12106606    -0.55950
O66         O  0.03711835  0.24634477  0.33249128    -0.57150
C67         C  0.08292457  0.19093316  0.22295239     0.75480
O68         O  0.96444172  0.25487866  0.20894550    -0.58310
C69         C  0.01018154  0.26977044  0.34367736     0.75450
C70         C  0.06907700  0.32151130  0.21303177     0.77840
Cd71       Cd  0.02938641  0.25271787  0.24740503     1.37460
O72         O  0.08085362  0.20470549  0.26434339    -0.57150
O73         O  0.07137165  0.31085535  0.25527727    -0.55960
C74         C  0.95601763  0.21924474  0.21914359     0.77800
O75         O  0.04600358  0.30205035  0.18686655    -0.58330
O76         O  0.06152257  0.20669425  0.19246742    -0.56780
O77         O  0.99212404  0.28553099  0.31001589    -0.56770
O78         O  0.98179284  0.19998844  0.24036504    -0.55950
O79         O  0.70165762  0.47844840  0.83313424    -0.57150
C80         C  0.65389632  0.42630014  0.72338902     0.75480
O81         O  0.71577959  0.54771556  0.70880841    -0.58310
C82         C  0.72462609  0.50632389  0.84471585     0.75450
C83         C  0.78358755  0.44060388  0.71955537     0.77840
Cd84       Cd  0.71554685  0.48114647  0.74926520     1.37470
O85         O  0.67089389  0.42440466  0.76267934    -0.57150
O86         O  0.76999081  0.43785312  0.76048952    -0.55960
C87         C  0.68137496  0.55449958  0.72207012     0.77800
O88         O  0.76792106  0.46536842  0.69234343    -0.58330
O89         O  0.66707123  0.45153773  0.69474299    -0.56780
O90         O  0.74561683  0.52088766  0.81268685    -0.56770
O91         O  0.66499751  0.52750222  0.74546268    -0.55950
O92         O  0.92946325  0.25197827  0.54486166    -0.57150
C93         C  0.88416730  0.19537741  0.65980185     0.75480
O94         O  0.99847908  0.25469420  0.67448499    -0.58310
C95         C  0.95820710  0.27394330  0.53525052     0.75450
C96         C  0.89519029  0.32507918  0.66102533     0.77840
Cd97       Cd  0.93650325  0.25684963  0.63042187     1.37460
O98         O  0.88696389  0.20559427  0.61723218    -0.57150
O99         O  0.88400135  0.30195053  0.62858219    -0.55960
C100        C  0.00629866  0.21992864  0.65985999     0.77800
O101        O  0.92778833  0.31796940  0.67945107    -0.58330
O102        O  0.90480072  0.21421183  0.68935374    -0.56780
O103        O  0.97650911  0.28879195  0.56973557    -0.56770
O104        O  0.98176398  0.20340228  0.63310826    -0.55950
O105        O  0.39138074  0.70030989  0.11377618    -0.57150
C106        C  0.46006467  0.77165570  0.03537999     0.75480
O107        O  0.42163562  0.81284107  0.18166832    -0.58310
C108        C  0.38531434  0.69132579  0.15623282     0.75450
C109        C  0.50891453  0.72084836  0.16238142     0.77840
Cd110      Cd  0.43725922  0.75440301  0.13041669     1.37460
O111        O  0.43317263  0.74719504  0.04467182    -0.57150
O112        O  0.48396952  0.70219604  0.13815973    -0.55960
C113        C  0.39072469  0.82008782  0.15935532     0.77800
O114        O  0.50034586  0.75611083  0.17430124    -0.58330
O115        O  0.47553333  0.78925833  0.07011329    -0.56780
O116        O  0.40254695  0.71199901  0.18726004    -0.56770
O117        O  0.38393835  0.79915705  0.12335314    -0.55950
O118        O  0.19789211  0.98269974  0.33132473    -0.57150
C119        C  0.15479169  0.92646871  0.21953009     0.75480
O120        O  0.21302694  0.04734282  0.20690253    -0.58310
C121        C  0.22357987  0.00773915  0.34329418     0.75450
C122        C  0.27986214  0.93704778  0.21833734     0.77840
Cd123      Cd  0.21395828  0.98153857  0.24787750     1.37460
O124        O  0.16843655  0.92666992  0.26082180    -0.57150
O125        O  0.25765923  0.92675088  0.25131032    -0.55960
C126        C  0.17761052  0.05303410  0.21651863     0.77800
O127        O  0.27317672  0.97022013  0.19923888    -0.58330
O128        O  0.17001966  0.95019728  0.19046959    -0.56780
O129        O  0.24710615  0.01867999  0.31187360    -0.56770
O130        O  0.16025996  0.02518820  0.23742738    -0.55950
O131        O  0.43233558  0.31522361  0.83687843    -0.57150
C132        C  0.38266494  0.37000171  0.72448104     0.75480
O133        O  0.49875378  0.31202744  0.70822033    -0.58310
C134        C  0.46050898  0.29252142  0.84520311     0.75450
C135        C  0.39382165  0.23950335  0.72328402     0.77840
Cd136      Cd  0.43606712  0.30952670  0.75103141     1.37470
O137        O  0.38623395  0.35900476  0.76666370    -0.57150
O138        O  0.38718001  0.25960460  0.75995228    -0.55960
C139        C  0.50659237  0.34716461  0.72214563     0.77800
O140        O  0.42231423  0.25095499  0.69864231    -0.58330
O141        O  0.40291988  0.35229640  0.69398428    -0.56780
O142        O  0.47654113  0.27672731  0.80990110    -0.56770
O143        O  0.48157861  0.36392222  0.74751020    -0.55950
O144        O  0.20215830  0.09394148  0.54673617    -0.57150
C145        C  0.15145378  0.14143598  0.65973574     0.75480
O146        O  0.20689269  0.02017245  0.66944246    -0.58310
C147        C  0.22302009  0.06472113  0.53505510     0.75450
C148        C  0.27991815  0.12302226  0.66690547     0.77840
Cd149      Cd  0.21052955  0.08657913  0.63165440     1.37470
O150        O  0.16736318  0.14350414  0.61978526    -0.57150
O151        O  0.26821657  0.12819100  0.62546030    -0.55960
C152        C  0.17199357  0.01434797  0.65689731     0.77800
O153        O  0.26133156  0.09825320  0.69161916    -0.58330
O154        O  0.16473763  0.11610617  0.68783154    -0.56780
O155        O  0.23908679  0.04649371  0.56835468    -0.56770
O156        O  0.15639537  0.04165068  0.63377306    -0.55950
O157        O  0.53432935  0.31769749  0.04858928    -0.57150
C158        C  0.58744126  0.36971362  0.15953315     0.75480
O159        O  0.46349578  0.31044278  0.17203659    -0.58310
C160        C  0.50787998  0.29261427  0.03885714     0.75450
C161        C  0.56988286  0.24232939  0.16795236     0.77840
Cd162      Cd  0.52959112  0.31048011  0.13426852     1.37460
O163        O  0.58425206  0.35668655  0.11785352    -0.57150
O164        O  0.57227599  0.25385194  0.12602974    -0.55960
C165        C  0.45612489  0.34598763  0.16070776     0.77800
O166        O  0.54571966  0.25984681  0.19419345    -0.58330
O167        O  0.56468843  0.35484258  0.18950616    -0.56780
O168        O  0.49276760  0.27470291  0.07322618    -0.56770
O169        O  0.48273930  0.36422571  0.13923162    -0.55950
O170        O  0.76717229  0.08462264  0.33468368    -0.57150
C171        C  0.81384509  0.13211909  0.22313752     0.75480
O172        O  0.74336470  0.01356150  0.21502785    -0.58310
C173        C  0.74158416  0.06033847  0.34856389     0.75450
C174        C  0.68463948  0.12826944  0.22267965     0.77840
Cd175      Cd  0.75035315  0.08193166  0.25106985     1.37470
O176        O  0.80053701  0.13259573  0.26453598    -0.57150
O177        O  0.70632392  0.13709399  0.25696200    -0.55960
C178        C  0.77938561  0.00709532  0.21809129     0.77800
O179        O  0.69262257  0.09642145  0.20087457    -0.58330
O180        O  0.79647474  0.11007065  0.19353501    -0.56780
O181        O  0.71892671  0.04692579  0.31728880    -0.56770
O182        O  0.80010223  0.03525438  0.23367129    -0.55950
O183        O  0.57615974  0.70144364  0.76833340    -0.57150
C184        C  0.50628279  0.77040492  0.84140789     0.75480
O185        O  0.54999760  0.80554047  0.68967462    -0.58310
C186        C  0.58583204  0.69227238  0.72680472     0.75450
C187        C  0.45651059  0.71941110  0.71400752     0.77840
Cd188      Cd  0.52982345  0.75314438  0.74657580     1.37470
O189        O  0.53330178  0.74640472  0.83230416    -0.57150
O190        O  0.48339663  0.69902863  0.73130000    -0.55960
C191        C  0.57501597  0.82044739  0.71742781     0.77800
O192        O  0.46392362  0.75609364  0.70875300    -0.58330
O193        O  0.49097963  0.78736161  0.80666553    -0.56780
O194        O  0.57042151  0.71174141  0.69400338    -0.56770
O195        O  0.57608457  0.80677981  0.75847805    -0.55950
O196        O  0.76858333  0.97692468  0.55077831    -0.57150
C197        C  0.82019899  0.92840923  0.66003887     0.75480
O198        O  0.76204210  0.04560814  0.67983288    -0.58310
C199        C  0.74587982  0.00460411  0.54010209     0.75450
C200        C  0.69206368  0.93478594  0.66465081     0.77840
Cd201      Cd  0.75846305  0.98040822  0.63541923     1.37470
O202        O  0.80940346  0.93327197  0.61801022    -0.57150
O203        O  0.71565345  0.92357264  0.63353706    -0.55960
C204        C  0.79689682  0.05185658  0.66751771     0.77800
O205        O  0.69822874  0.96884254  0.68271642    -0.58330
O206        O  0.80083949  0.94561418  0.69187371    -0.56780
O207        O  0.72601403  0.01929202  0.57311933    -0.56770
O208        O  0.81218886  0.02534524  0.64246605    -0.55950
C209        C  0.59401595  0.89002696  0.69900769    -0.05120
C210        C  0.60406614  0.84990510  0.70240273     0.00810
C211        C  0.64267802  0.83821045  0.69443094    -0.07760
C212        C  0.67018908  0.86727213  0.68283098    -0.05140
C213        C  0.66060252  0.90755283  0.67966091     0.00800
C214        C  0.62191548  0.91941415  0.68795403    -0.07670
C215        C  0.61001345  0.96248137  0.68423186     0.62710
H216        H  0.56431512  0.89816703  0.70585373     0.13400
H217        H  0.69984743  0.85868470  0.67645346     0.13410
C218        C  0.65466485  0.79498052  0.69767286     0.62940
F219        F  0.57050195  0.96693171  0.68962378    -0.22230
F220        F  0.62018435  0.97705876  0.64065494    -0.19560
F221        F  0.62828381  0.98471651  0.71885932    -0.19230
F222        F  0.63270508  0.77216537  0.66691409    -0.19280
F223        F  0.64911134  0.78142891  0.74286963    -0.19610
F224        F  0.69323670  0.78983047  0.68638740    -0.22280
C225        C  0.77505398  0.04908354  0.42364454    -0.05120
C226        C  0.74017950  0.04728851  0.39832884     0.00810
C227        C  0.70616157  0.03307790  0.42098168    -0.07760
C228        C  0.70890427  0.01990240  0.46778668    -0.05140
C229        C  0.74427244  0.02011321  0.49186532     0.00800
C230        C  0.77774151  0.03581068  0.47006491    -0.07670
C231        C  0.81602299  0.03946828  0.49615814     0.62710
H232        H  0.80075112  0.06026059  0.40634058     0.13400
H233        H  0.68359026  0.00842242  0.48568289     0.13410
C234        C  0.66709855  0.03225945  0.39656303     0.62940
F235        F  0.84360491  0.05978235  0.47034229    -0.22230
F236        F  0.83027237  0.00215834  0.50553556    -0.19560
F237        F  0.81072842  0.05993108  0.53794398    -0.19230
F238        F  0.66716781  0.00428478  0.36077424    -0.19280
F239        F  0.65928226  0.06927484  0.37830905    -0.19610
F240        F  0.63744739  0.02249017  0.42710923    -0.22280
C241        C  0.65930988  0.19612435  0.21864575    -0.05120
C242        C  0.65316063  0.15558166  0.20882191     0.00810
C243        C  0.61783699  0.14318587  0.18750192    -0.07760
C244        C  0.59021974  0.17223836  0.17617544    -0.05140
C245        C  0.59698597  0.21259712  0.18571899     0.00800
C246        C  0.63204112  0.22492098  0.20695897    -0.07670
C247        C  0.64106085  0.26862506  0.21572703     0.62710
H248        H  0.68638987  0.20538611  0.23462552     0.13400
H249        H  0.56342423  0.16381361  0.15889810     0.13410
C250        C  0.60897973  0.09978502  0.17725460     0.62940
F251        F  0.67690988  0.27432874  0.23652042    -0.22230
F252        F  0.61342866  0.28471668  0.24510424    -0.19560
F253        F  0.64101278  0.28876011  0.17360318    -0.19230
F254        F  0.61346425  0.07780385  0.21767607    -0.19280
F255        F  0.63371999  0.08581132  0.14293477    -0.19610
F256        F  0.57144312  0.09416856  0.16142453    -0.22280
C257        C  0.44568546  0.28283604  0.92910027    -0.05120
C258        C  0.47388987  0.28572926  0.89389334     0.00810
C259        C  0.51359333  0.28543921  0.90647804    -0.07760
C260        C  0.52342675  0.28642030  0.95444424    -0.05140
C261        C  0.49512935  0.28565432  0.98973147     0.00800
C262        C  0.45557287  0.28173020  0.97699318    -0.07670
C263        C  0.42375133  0.27773184  0.01347216     0.62710
H264        H  0.41556853  0.28197504  0.91863682     0.13400
H265        H  0.55350529  0.28832131  0.96491121     0.13410
C266        C  0.54547621  0.28538831  0.86979020     0.62940
F267        F  0.38737906  0.27598523  0.99315953    -0.22230
F268        F  0.42474101  0.30993338  0.04390960    -0.19560
F269        F  0.42877645  0.24312420  0.03847358    -0.19230
F270        F  0.54195888  0.31800205  0.84094731    -0.19280
F271        F  0.54298341  0.25097721  0.84308075    -0.19610
F272        F  0.58189829  0.28679812  0.88998228    -0.22280
C273        C  0.34833752  0.14579690  0.66812809    -0.05120
C274        C  0.31081482  0.14843825  0.68642162     0.00810
C275        C  0.30137716  0.17966162  0.71750573    -0.07760
C276        C  0.32990286  0.20770582  0.72918477    -0.05140
C277        C  0.36737984  0.20617019  0.71015873     0.00800
C278        C  0.37721494  0.17412061  0.67981270    -0.07670
C279        C  0.41762466  0.16951515  0.65997645     0.62710
H280        H  0.35447106  0.12195882  0.64356753     0.13400
H281        H  0.32241697  0.23216534  0.75221829     0.13410
C282        C  0.26044622  0.18475167  0.73569507     0.62940
F283        F  0.42183313  0.13368462  0.63644131    -0.22230
F284        F  0.44444561  0.17084400  0.69603236    -0.19560
F285        F  0.42532022  0.19967343  0.62861471    -0.19230
F286        F  0.25014355  0.15254811  0.76288826    -0.19280
F287        F  0.23534732  0.18731256  0.69810747    -0.19610
F288        F  0.25654806  0.21879443  0.76278677    -0.22280
C289        C  0.19594374  0.06185373  0.45490575    -0.05120
C290        C  0.22637658  0.05174962  0.48517925     0.00810
C291        C  0.25781520  0.02925164  0.46720761    -0.07760
C292        C  0.25637523  0.01605286  0.42011383    -0.05140
C293        C  0.22480832  0.02445814  0.39116727     0.00800
C294        C  0.19463574  0.04864815  0.40808944    -0.07670
C295        C  0.16149915  0.06097768  0.37643589     0.62710
H296        H  0.17238416  0.07943917  0.46855189     0.13400
H297        H  0.27942459  0.99809048  0.40580006     0.13410
C298        C  0.29291249  0.01942110  0.49689859     0.62940
F299        F  0.13703519  0.08745505  0.39861704    -0.22230
F300        F  0.13990867  0.02800139  0.36321342    -0.19560
F301        F  0.17606662  0.07916075  0.33673718    -0.19230
F302        F  0.28269995  0.99246495  0.53117508    -0.19280
F303        F  0.30754399  0.05364989  0.51771947    -0.19610
F304        F  0.32215766  0.00278437  0.47027304    -0.22280
C305        C  0.52179621  0.78012544  0.92535405    -0.05120
C306        C  0.49334276  0.77739402  0.89030287     0.00810
C307        C  0.45373841  0.77795523  0.90313071    -0.07760
C308        C  0.44418744  0.77752144  0.95114149    -0.05140
C309        C  0.47269593  0.77824055  0.98628614     0.00800
C310        C  0.51221002  0.78150246  0.97333989    -0.07670
C311        C  0.54426657  0.78488007  0.00970189     0.62710
H312        H  0.55184746  0.78057076  0.91468694     0.13400
H313        H  0.41414957  0.77599131  0.96174681     0.13410
C314        C  0.42166973  0.77755624  0.86659381     0.62940
F315        F  0.58054460  0.78610152  0.98922883    -0.22230
F316        F  0.54289735  0.75255236  0.03930250    -0.19560
F317        F  0.53990899  0.81946976  0.03558321    -0.19230
F318        F  0.42521076  0.74472526  0.83747689    -0.19280
F319        F  0.42387279  0.81174140  0.84012132    -0.19610
F320        F  0.38535402  0.77611400  0.88694887    -0.22280
C321        C  0.29743752  0.86995605  0.19438819    -0.05120
C322        C  0.30970295  0.90926894  0.20169515     0.00810
C323        C  0.34921152  0.91949604  0.19608359    -0.07760
C324        C  0.37536401  0.88940281  0.18307233    -0.05140
C325        C  0.36270350  0.85020770  0.17485695     0.00800
C326        C  0.32312210  0.84013028  0.18082667    -0.07670
C327        C  0.30797662  0.79785476  0.17424675     0.62710
H328        H  0.26707850  0.86281155  0.19911905     0.13400
H329        H  0.40575282  0.89634378  0.17842035     0.13410
C330        C  0.36363768  0.96151808  0.20493064     0.62940
F331        F  0.26986412  0.79392241  0.18847347    -0.22230
F332        F  0.32985749  0.77199996  0.20053487    -0.19560
F333        F  0.30977909  0.78702252  0.12740170    -0.19230
F334        F  0.35356036  0.97354657  0.24978632    -0.19280
F335        F  0.34727937  0.98681281  0.17267315    -0.19610
F336        F  0.40344563  0.96446361  0.20084109    -0.22280
C337        C  0.08219961  0.14093014  0.67662439    -0.05120
C338        C  0.11597316  0.16355748  0.67058259     0.00810
C339        C  0.11387557  0.20543508  0.66974722    -0.07760
C340        C  0.07720448  0.22318541  0.66957417    -0.05140
C341        C  0.04318038  0.20016295  0.67051416     0.00800
C342        C  0.04557074  0.15849130  0.67676797    -0.07670
C343        C  0.00988160  0.13232838  0.68275083     0.62710
H344        H  0.08453813  0.10895055  0.67816157     0.13400
H345        H  0.07484611  0.25507446  0.66648558     0.13410
C346        C  0.15004928  0.23108807  0.67110120     0.62940
F347        F  0.01935566  0.09503216  0.69905404    -0.22230
F348        F  0.99113129  0.12746022  0.64018732    -0.19560
F349        F  0.98500254  0.14941184  0.71493173    -0.19230
F350        F  0.17325797  0.22302468  0.63280498    -0.19280
F351        F  0.17005932  0.22334566  0.71195863    -0.19610
F352        F  0.14151555  0.27115533  0.67078437    -0.22280
C353        C  0.87979977  0.12524805  0.68050867    -0.05120
C354        C  0.86045539  0.16086914  0.67327932     0.00810
C355        C  0.81962886  0.16156284  0.67392119    -0.07760
C356        C  0.79916168  0.12524058  0.67677728    -0.05140
C357        C  0.81872981  0.08887910  0.67856040     0.00800
C358        C  0.85966439  0.08904964  0.68362177    -0.07670
C359        C  0.88283919  0.05128644  0.68875188     0.62710
H360        H  0.91114727  0.12558263  0.68054263     0.13400
H361        H  0.76792187  0.12487704  0.67411162     0.13410
C362        C  0.79821605  0.20051155  0.67090393     0.62940
F363        F  0.91895509  0.05908008  0.70795567    -0.22230
F364        F  0.88802054  0.03405670  0.64503604    -0.19560
F365        F  0.86395597  0.02489888  0.71804171    -0.19230
F366        F  0.80571156  0.21835523  0.62829874    -0.19280
F367        F  0.81041943  0.22555087  0.70681298    -0.19610
F368        F  0.75863910  0.19511280  0.67501273    -0.22280
C369        C  0.61924033  0.58692614  0.71177452    -0.05120
C370        C  0.65959218  0.59130344  0.71248624     0.00810
C371        C  0.67613002  0.63003249  0.71096119    -0.07760
C372        C  0.65122899  0.66310933  0.71395423    -0.05140
C373        C  0.61098885  0.65798828  0.71739986     0.00800
C374        C  0.59477832  0.61952846  0.71453076    -0.07670
C375        C  0.55152318  0.61319463  0.71444596     0.62710
H376        H  0.60679415  0.55730946  0.71098611     0.13400
H377        H  0.66295369  0.69301313  0.71511759     0.13410
C378        C  0.71944677  0.63641994  0.70743679     0.62940
F379        F  0.54118662  0.57348300  0.71057855    -0.22230
F380        F  0.53638820  0.63291645  0.67646944    -0.19560
F381        F  0.53592891  0.62804092  0.75562222    -0.19230
F382        F  0.73300239  0.61837897  0.66695709    -0.19280
F383        F  0.73757401  0.62030664  0.74604876    -0.19610
F384        F  0.72916508  0.67634308  0.70555467    -0.22280
C385        C  0.85176825  0.42403577  0.69931212    -0.05120
C386        C  0.81286882  0.41235407  0.70337312     0.00810
C387        C  0.80179111  0.37261132  0.69413301    -0.07760
C388        C  0.83010436  0.34535052  0.68150848    -0.05370
C389        C  0.86905335  0.35647264  0.67762852     0.00800
C390        C  0.88043921  0.39638110  0.68640270    -0.07670
C391        C  0.92214620  0.40970376  0.68090744     0.62710
H392        H  0.85946328  0.45466831  0.70674761     0.13400
H393        H  0.82193944  0.31473301  0.67455825     0.13410
C394        C  0.75984733  0.35933105  0.69668566     0.62940
F395        F  0.92635696  0.45032464  0.68704949    -0.22230
F396        F  0.93513252  0.39998815  0.63639028    -0.19560
F397        F  0.94488282  0.39113693  0.71392070    -0.19230
F398        F  0.73800752  0.38260230  0.66715995    -0.19280
F399        F  0.74655831  0.36333575  0.74218536    -0.19610
F400        F  0.75486298  0.32003046  0.68315738    -0.22280
C401        C  0.58445858  0.42606970  0.70518782    -0.05120
C402        C  0.61774746  0.40378305  0.71372776     0.00810
C403        C  0.61461742  0.36196728  0.71731131    -0.07760
C404        C  0.57764263  0.34419400  0.71645421    -0.05140
C405        C  0.54408911  0.36697542  0.71258775     0.00800
C406        C  0.54743003  0.40844384  0.70475261    -0.07670
C407        C  0.51227432  0.43429430  0.69670735     0.62710
H408        H  0.58745032  0.45796566  0.70182050     0.13400
H409        H  0.57457430  0.31248268  0.72132803     0.13410
C410        C  0.65006632  0.33617027  0.72055907     0.62940
F411        F  0.52264614  0.47137596  0.67996951    -0.22230
F412        F  0.49250522  0.43973317  0.73838101    -0.19560
F413        F  0.48797914  0.41652416  0.66396201    -0.19230
F414        F  0.67037794  0.34490601  0.76115756    -0.19280
F415        F  0.67315652  0.34303277  0.68194613    -0.19610
F416        F  0.64064070  0.29613621  0.72093656    -0.22280
C417        C  0.84818630  0.19650213  0.21690271    -0.05120
C418        C  0.84891657  0.15513850  0.21120086     0.00810
C419        C  0.88414403  0.13614661  0.20031138    -0.07760
C420        C  0.91824672  0.15908739  0.19943813    -0.05140
C421        C  0.91811871  0.20010610  0.20878941     0.00800
C422        C  0.88230436  0.21966088  0.21506186    -0.07670
C423        C  0.88011825  0.26428544  0.22199735     0.62710
H424        H  0.82073131  0.21031368  0.22459952     0.13400
H425        H  0.94576897  0.14472359  0.19375275     0.13410
C426        C  0.88612764  0.09151854  0.19279143     0.62940
F427        F  0.84239587  0.27689398  0.22754028    -0.22230
F428        F  0.89534118  0.28312847  0.18311734    -0.19560
F429        F  0.90075301  0.27556653  0.26160235    -0.19230
F430        F  0.86282593  0.08044410  0.15536852    -0.19280
F431        F  0.87373665  0.07227967  0.23280565    -0.19610
F432        F  0.92335654  0.07912719  0.18305369    -0.22280
C433        C  0.01102142  0.27593409  0.47730934    -0.05120
C434        C  0.97139653  0.27974182  0.48644940     0.00810
C435        C  0.94562623  0.28689356  0.44890635    -0.07760
C436        C  0.95985378  0.28496496  0.40271762    -0.05140
C437        C  0.99891635  0.27693929  0.39326845     0.00800
C438        C  0.02547098  0.27486358  0.43120306    -0.07670
C439        C  0.06881259  0.27192154  0.42354833     0.62710
H440        H  0.03053196  0.27189878  0.50666837     0.13400
H441        H  0.94003590  0.28814246  0.37351821     0.13410
C442        C  0.90362678  0.29744299  0.45753387     0.62940
F443        F  0.08923697  0.27896407  0.46466771    -0.22230
F444        F  0.08072314  0.29985824  0.39113691    -0.19560
F445        F  0.07800648  0.23434327  0.40751959    -0.19230
F446        F  0.90154711  0.32753446  0.49078432    -0.19280
F447        F  0.88341105  0.26459822  0.47329541    -0.19610
F448        F  0.88582526  0.31059190  0.41704501    -0.22280
C449        C  0.14800048  0.16143677  0.21585143    -0.05120
C450        C  0.10780038  0.15689089  0.21164271     0.00810
C451        C  0.09167729  0.11916705  0.20106249    -0.07760
C452        C  0.11637339  0.08637174  0.19866960    -0.05140
C453        C  0.15641205  0.09016223  0.20646088     0.00800
C454        C  0.17291298  0.12858853  0.21266085    -0.07670
C455        C  0.21619601  0.13483317  0.21789675     0.62710
H456        H  0.15956307  0.19081881  0.22318804     0.13400
H457        H  0.10423036  0.05696175  0.19307648     0.13410
C458        C  0.04830420  0.11325916  0.19522713     0.62940
F459        F  0.22589409  0.17461620  0.22289819    -0.22230
F460        F  0.23473903  0.12049488  0.17833031    -0.19560
F461        F  0.22941206  0.11512063  0.25708372    -0.19230
F462        F  0.03527916  0.13554122  0.15795766    -0.19280
F463        F  0.02952163  0.12511094  0.23575521    -0.19610
F464        F  0.03854476  0.07393920  0.18642120    -0.22280
C465        C  0.35176570  0.58647605  0.17881230    -0.05120
C466        C  0.31148237  0.58997479  0.17336259     0.00810
C467        C  0.29514198  0.62841283  0.17017883    -0.07760
C468        C  0.32027680  0.66155094  0.16713291    -0.05140
C469        C  0.36052950  0.65719224  0.16833250     0.00800
C470        C  0.37664484  0.61953161  0.17630025    -0.07670
C471        C  0.42012251  0.61421985  0.17972020     0.62710
H472        H  0.36391054  0.55715438  0.18254137     0.13400
H473        H  0.30879596  0.69098018  0.16183121     0.13410
C474        C  0.25177550  0.63449602  0.16795358     0.62940
F475        F  0.42991742  0.57518208  0.18830276    -0.22230
F476        F  0.43466736  0.63746179  0.21600335    -0.19560
F477        F  0.43739066  0.62553327  0.13809405    -0.19230
F478        F  0.23466904  0.61892563  0.20771690    -0.19280
F479        F  0.23670868  0.61585509  0.12846583    -0.19610
F480        F  0.24242081  0.67432913  0.16590000    -0.22280
C481        C  0.14770180  0.37608943  0.14771822    -0.05120
C482        C  0.15005717  0.41210296  0.17305639     0.00810
C483        C  0.12296901  0.41950113  0.20946627    -0.07760
C484        C  0.09544543  0.38973936  0.21998997    -0.05140
C485        C  0.09416434  0.35352825  0.19529187     0.00800
C486        C  0.12064276  0.34640797  0.15854612    -0.07670
C487        C  0.12202142  0.30670122  0.13276547     0.62710
H488        H  0.16848304  0.37045071  0.12011192     0.13400
H489        H  0.07521046  0.39403746  0.24857967     0.13410
C490        C  0.12280612  0.45818204  0.23715525     0.62940
F491        F  0.15220592  0.30506028  0.10092388    -0.22230
F492        F  0.08794967  0.30048474  0.10828849    -0.19560
F493        F  0.12701487  0.27636434  0.16461441    -0.19230
F494        F  0.12156670  0.48991530  0.20668967    -0.19280
F495        F  0.15569226  0.46101675  0.26465516    -0.19610
F496        F  0.09103634  0.46070141  0.26655133    -0.22280
C497        C  0.38408413  0.34157147  0.16612054    -0.05120
C498        C  0.41795713  0.36499430  0.16967475     0.00810
C499        C  0.41429322  0.40654430  0.17784258    -0.07760
C500        C  0.37751692  0.42346359  0.17787117    -0.05140
C501        C  0.34438990  0.40071539  0.16943578     0.00800
C502        C  0.34705170  0.35901095  0.16561762    -0.07670
C503        C  0.31087711  0.33351613  0.16170072     0.62710
H504        H  0.38684139  0.30983988  0.16112851     0.13400
H505        H  0.37456508  0.45538462  0.18107368     0.13410
C506        C  0.44874910  0.43385184  0.18424939     0.62940
F507        F  0.31934876  0.29343941  0.16202492    -0.22230
F508        F  0.29158713  0.34175264  0.12044758    -0.19560
F509        F  0.28682972  0.34153826  0.19932722    -0.19230
F510        F  0.46578031  0.44007415  0.14105955    -0.19280
F511        F  0.47449648  0.41699316  0.21510802    -0.19610
F512        F  0.43847315  0.47048242  0.20257595    -0.22280
C513        C  0.89321224  0.84674784  0.67908577    -0.05120
C514        C  0.92762663  0.86749866  0.66842669     0.00810
C515        C  0.92652378  0.90955437  0.66400616    -0.07760
C516        C  0.89054861  0.92831639  0.66384978    -0.05140
C517        C  0.85614500  0.90708945  0.67008497     0.00800
C518        C  0.85722664  0.86624608  0.68051473    -0.07670
C519        C  0.82040917  0.84376383  0.69224640     0.62710
H520        H  0.89438000  0.81497658  0.68406035     0.13400
H521        H  0.88889829  0.95973300  0.65695972     0.13410
C522        C  0.96278980  0.93509028  0.65955354     0.62940
F523        F  0.82758264  0.80447710  0.70281435    -0.22230
F524        F  0.79520056  0.84476956  0.65457442    -0.19560
F525        F  0.80304017  0.86129785  0.73081893    -0.19230
F526        F  0.97779296  0.93185425  0.61472887    -0.19280
F527        F  0.98996747  0.92324695  0.69206623    -0.19610
F528        F  0.95524521  0.97481036  0.66807170    -0.22280
C529        C  0.09134045  0.93823464  0.67119567    -0.05120
C530        C  0.11178198  0.90299235  0.66454301     0.00810
C531        C  0.15266659  0.90418748  0.66326675    -0.07760
C532        C  0.17161532  0.94131332  0.66372530    -0.05140
C533        C  0.15083497  0.97682277  0.66587275     0.00800
C534        C  0.11010537  0.97535505  0.67229685    -0.07670
C535        C  0.08617548  0.01248108  0.67986261     0.62710
H536        H  0.06011761  0.93666404  0.67292972     0.13400
H537        H  0.20278787  0.94288008  0.66045040     0.13410
C538        C  0.17606976  0.86656089  0.66357128     0.62940
F539        F  0.04943957  0.00338322  0.69610243    -0.22230
F540        F  0.08227204  0.03260885  0.63805324    -0.19560
F541        F  0.10384376  0.03693637  0.71289358    -0.19230
F542        F  0.16757959  0.84372256  0.62433013    -0.19280
F543        F  0.16715959  0.84575295  0.70375383    -0.19610
F544        F  0.21545959  0.87427692  0.66384258    -0.22280
C545        C  0.29673692  0.43795234  0.71203139    -0.05120
C546        C  0.31588195  0.47479264  0.70849136     0.00810
C547        C  0.35657563  0.47576726  0.70134926    -0.07760
C548        C  0.37711138  0.44008430  0.70365841    -0.05140
C549        C  0.35831915  0.40399534  0.71242952     0.00800
C550        C  0.31753082  0.40223199  0.71411201    -0.07670
C551        C  0.29646626  0.36275620  0.71828138     0.62710
H552        H  0.26561819  0.43749636  0.71624135     0.13400
H553        H  0.40840440  0.44046119  0.70144294     0.13410
C554        C  0.37867183  0.51412972  0.69217844     0.62940
F555        F  0.25674757  0.36715633  0.71610250    -0.22230
F556        F  0.30553628  0.34517938  0.76051511    -0.19560
F557        F  0.30752713  0.33795578  0.68184157    -0.19230
F558        F  0.38283903  0.53567609  0.73341184    -0.19280
F559        F  0.35911702  0.53649597  0.65945740    -0.19610
F560        F  0.41527906  0.50684976  0.67461713    -0.22280
C561        C  0.21165909  0.55365017  0.92201489    -0.05120
C562        C  0.24034282  0.53949851  0.89180284     0.00810
C563        C  0.26709723  0.51131556  0.90775666    -0.07760
C564        C  0.26573118  0.49973562  0.95493614    -0.05140
C565        C  0.23820148  0.51508710  0.98649729     0.00800
C566        C  0.20969288  0.54167772  0.96930799    -0.07670
C567        C  0.17715660  0.55735509  0.99990266     0.62710
H568        H  0.19119135  0.57478227  0.90831754     0.13400
H569        H  0.28692600  0.47895549  0.96761324     0.13410
C570        C  0.29694348  0.49365506  0.87472208     0.62940
F571        F  0.15070298  0.57892792  0.97426971    -0.22230
F572        F  0.19206401  0.58211076  0.03453628    -0.19560
F573        F  0.15738863  0.52598775  0.02017945    -0.19230
F574        F  0.32107882  0.52333570  0.85815164    -0.19280
F575        F  0.27843442  0.47538496  0.83715368    -0.19610
F576        F  0.31953266  0.46561538  0.89668981    -0.22280
C577        C  0.15781816  0.68759074  0.71895863    -0.05120
C578        C  0.15221279  0.64721354  0.70837098     0.00810
C579        C  0.11765865  0.63471911  0.68542710    -0.07760
C580        C  0.09008903  0.66370567  0.67336500    -0.05140
C581        C  0.09654180  0.70407326  0.68344442     0.00800
C582        C  0.13099203  0.71624108  0.70610120    -0.07670
C583        C  0.14054331  0.75981494  0.71351005     0.62710
H584        H  0.18450831  0.69694961  0.73583649     0.13400
H585        H  0.06384139  0.65527476  0.65489710     0.13410
C586        C  0.10971940  0.59135520  0.67422183     0.62940
F587        F  0.17599854  0.76559534  0.73529074    -0.22230
F588        F  0.11249312  0.77742687  0.74100849    -0.19560
F589        F  0.14181819  0.77804744  0.67028627    -0.19230
F590        F  0.11346811  0.56903927  0.71449145    -0.19280
F591        F  0.13561974  0.57812179  0.64078476    -0.19610
F592        F  0.07270609  0.58540421  0.65680526    -0.22280
C593        C  0.37644655  0.64342699  0.69128440    -0.05120
C594        C  0.34452996  0.66378185  0.70881390     0.00810
C595        C  0.34777901  0.70489895  0.71861379    -0.07760
C596        C  0.38462799  0.72324331  0.71608354    -0.05140
C597        C  0.41775484  0.70142621  0.70408422     0.00800
C598        C  0.41301632  0.66149651  0.68845462    -0.07670
C599        C  0.44648559  0.63656717  0.67199818     0.62710
H600        H  0.37322204  0.61212520  0.68311082     0.13400
H601        H  0.38811103  0.75404917  0.72646813     0.13410
C602        C  0.31241944  0.72908472  0.73084626     0.62940
F603        F  0.43410903  0.60376380  0.64626231    -0.22230
F604        F  0.46623105  0.62320965  0.71079559    -0.19560
F605        F  0.47063485  0.65877927  0.64357236    -0.19230
F606        F  0.29779712  0.71751075  0.77377364    -0.19280
F607        F  0.28441700  0.72325977  0.69667695    -0.19610
F608        F  0.32095855  0.76928184  0.73325799    -0.22280
C609        C  0.07897709  0.84452978  0.21197576    -0.05120
C610        C  0.04561307  0.86771568  0.20689995     0.00810
C611        C  0.04983219  0.90876038  0.19680380    -0.07760
C612        C  0.08686037  0.92593939  0.19721994    -0.05140
C613        C  0.11951717  0.90370483  0.20785460     0.00800
C614        C  0.11620660  0.86210483  0.21282479    -0.07670
C615        C  0.15187175  0.83678105  0.21856387     0.62710
H616        H  0.07559417  0.81305662  0.21838542     0.13400
H617        H  0.09021876  0.95772835  0.19291347     0.13410
C618        C  0.01553504  0.93524160  0.18824644     0.62940
F619        F  0.14277822  0.79667245  0.21801635    -0.22230
F620        F  0.16997961  0.84570715  0.26065669    -0.19560
F621        F  0.17723982  0.84418131  0.18206297    -0.19230
F622        F  0.99809258  0.94387402  0.23068701    -0.19280
F623        F  0.98964097  0.91635759  0.15833995    -0.19610
F624        F  0.02641110  0.97075706  0.16770262    -0.22280
C625        C  0.94485192  0.78882987  0.42726220    -0.05120
C626        C  0.97279865  0.78949445  0.39160406     0.00810
C627        C  0.01234499  0.78475335  0.40341280    -0.07760
C628        C  0.02268381  0.78335060  0.45117545    -0.05140
C629        C  0.99487381  0.78464913  0.48703023     0.00800
C630        C  0.95503851  0.78545398  0.47491769    -0.07670
C631        C  0.92334646  0.78403274  0.51181700     0.62710
H632        H  0.91474039  0.79136517  0.41733992     0.13400
H633        H  0.05287337  0.78172160  0.46104780     0.13410
C634        C  0.04368532  0.78243469  0.36614269     0.62940
F635        F  0.88684069  0.78638209  0.49209275    -0.22230
F636        F  0.92771690  0.81544673  0.54300790    -0.19560
F637        F  0.92520023  0.74858047  0.53585347    -0.19230
F638        F  0.04267534  0.81575212  0.33810837    -0.19280
F639        F  0.03797748  0.74881091  0.33872013    -0.19610
F640        F  0.08027139  0.78022598  0.38567140    -0.22280
C641        C  0.81160662  0.90070761  0.22770445    -0.05120
C642        C  0.84951203  0.90457591  0.21058070     0.00810
C643        C  0.86054020  0.93969351  0.18689893    -0.07760
C644        C  0.83438684  0.97122506  0.18507012    -0.05140
C645        C  0.79794226  0.96888724  0.20640774     0.00800
C646        C  0.78522132  0.93233776  0.22545305    -0.07670
C647        C  0.74487956  0.92748962  0.24546437     0.62710
H648        H  0.80344009  0.87329984  0.24482723     0.13400
H649        H  0.84336936  0.99930644  0.17014129     0.13410
C650        C  0.90111047  0.94552220  0.16827919     0.62940
F651        F  0.73808981  0.88922607  0.26101905    -0.22230
F652        F  0.71791369  0.93562995  0.21104931    -0.19560
F653        F  0.73992531  0.95327157  0.28296464    -0.19230
F654        F  0.90876512  0.91736649  0.13404308    -0.19280
F655        F  0.92675708  0.94171624  0.20499261    -0.19610
F656        F  0.90664480  0.98268496  0.14881584    -0.22280
C657        C  0.62546140  0.47230953  0.18957209    -0.05120
C658        C  0.66411974  0.46942501  0.17568011     0.00810
C659        C  0.67963418  0.43162376  0.16511355    -0.07760
C660        C  0.65409307  0.39866887  0.16217914    -0.05140
C661        C  0.61444068  0.40265909  0.17159949     0.00800
C662        C  0.60035359  0.43959217  0.18779623    -0.07670
C663        C  0.55814553  0.44522759  0.19905188     0.62710
H664        H  0.61439421  0.50127394  0.19894015     0.13400
H665        H  0.66459606  0.36993153  0.15101552     0.13410
C666        C  0.72238225  0.42644902  0.15570409     0.62940
F667        F  0.54950814  0.48417839  0.21052818    -0.22230
F668        F  0.54816640  0.42164602  0.23670439    -0.19560
F669        F  0.53667241  0.43455317  0.16007831    -0.19230
F670        F  0.74329866  0.43982386  0.19421745    -0.19280
F671        F  0.73317199  0.44790130  0.11659301    -0.19610
F672        F  0.73159441  0.38703149  0.14793739    -0.22280
C673        C  0.69562104  0.55708100  0.95785101    -0.05120
C674        C  0.72707299  0.54847204  0.98730686     0.00810
C675        C  0.75935475  0.52785606  0.96832301    -0.07760
C676        C  0.75783744  0.51503995  0.92110236    -0.05140
C677        C  0.72551264  0.52216774  0.89293400     0.00800
C678        C  0.69435361  0.54440086  0.91084100    -0.07670
C679        C  0.66024241  0.55524873  0.87994366     0.62710
H680        H  0.67138441  0.57324759  0.97219191     0.13400
H681        H  0.78156597  0.49853904  0.90596992     0.13410
C682        C  0.79544532  0.51967731  0.99699575     0.62940
F683        F  0.63420881  0.57930488  0.90330731    -0.22230
F684        F  0.64080786  0.52122440  0.86554432    -0.19560
F685        F  0.67335154  0.57548739  0.84090519    -0.19230
F686        F  0.78709893  0.49233555  0.03157038    -0.19280
F687        F  0.80900198  0.55456663  0.01733194    -0.19610
F688        F  0.82486587  0.50434331  0.96956400    -0.22280
C689        C  0.81192413  0.66512221  0.22793971    -0.05120
C690        C  0.81397497  0.65010029  0.18211322     0.00810
C691        C  0.84471478  0.66224366  0.15251191    -0.07760
C692        C  0.87058033  0.69177559  0.16883000    -0.05140
C693        C  0.86660860  0.70955683  0.21340570     0.00800
C694        C  0.83742374  0.69484874  0.24439022    -0.07670
C695        C  0.83177223  0.71066803  0.29414855     0.62710
H696        H  0.78842821  0.65496598  0.25005690     0.13400
H697        H  0.89325644  0.70233872  0.14577490     0.13410
C698        C  0.85045594  0.64410870  0.10402548     0.62940
F699        F  0.80427205  0.68903887  0.31861816    -0.22230
F700        F  0.81936085  0.74957461  0.29280431    -0.19560
F701        F  0.86609356  0.70847602  0.31894645    -0.19230
F702        F  0.82242709  0.65760874  0.07359896    -0.19280
F703        F  0.84820633  0.60314373  0.10656893    -0.19610
F704        F  0.88623717  0.65402099  0.08553152    -0.22280
C705        C  0.61633403  0.69824024  0.17058977    -0.05120
C706        C  0.61479550  0.65664196  0.17185479     0.00810
C707        C  0.57883546  0.63708063  0.17829850    -0.07760
C708        C  0.54503284  0.65985866  0.17890563    -0.05140
C709        C  0.54608578  0.70133757  0.17390947     0.00800
C710        C  0.58243991  0.72121722  0.17266191    -0.07670
C711        C  0.58555844  0.76614198  0.17184514     0.62710
H712        H  0.64430954  0.71249993  0.16653037     0.13400
H713        H  0.51712751  0.64512586  0.18109068     0.13410
C714        C  0.57595650  0.59215478  0.18168831     0.62940
F715        F  0.62367109  0.77907799  0.17136212    -0.22230
F716        F  0.56822693  0.78174593  0.21156269    -0.19560
F717        F  0.56750959  0.78060245  0.13227696    -0.19230
F718        F  0.59670399  0.57942983  0.22015913    -0.19280
F719        F  0.59070704  0.57488449  0.14139909    -0.19610
F720        F  0.53810339  0.57915877  0.18682859    -0.22280
loop_ 
_geom_bond_atom_site_label_1 
_geom_bond_atom_site_label_2 
_geom_bond_distance 
_geom_bond_site_symmetry_2 
_ccdc_geom_bond_type 
O1            C4   1.267       .  A
O1           Cd6   2.453       .  S
C2           O11   1.264       .  A
C2            O7   1.266       .  A
C2          C706   1.477       .  S
O3            C9   1.269       .  A
O3           Cd6   2.524       .  S
C4           O12   1.264       .  A
C4          C674   1.489   1_554  S
C5           O10   1.268       .  A
C5            O8   1.261       .  A
C5          C690   1.479       .  S
Cd6          O13   2.378       .  S
Cd6          O12   2.460       .  S
Cd6          O11   2.477       .  S
Cd6           O7   2.470       .  S
Cd6          O10   2.482       .  S
Cd6           O8   2.431       .  S
C9           O13   1.262       .  A
C9          C658   1.478       .  S
O14          C17   1.268       .  A
O14         Cd19   2.466       .  S
C15          O24   1.266       .  A
C15          O20   1.267       .  A
C15         C642   1.483       .  S
O16          C22   1.271   1_655  A
O16         Cd19   2.514       .  S
C17          O25   1.264       .  A
C17         C626   1.483       .  S
C18          O23   1.272       .  A
C18          O21   1.258       .  A
C18         C693   1.493       .  S
Cd19         O26   2.428       .  S
Cd19         O25   2.457       .  S
Cd19         O24   2.481       .  S
Cd19         O20   2.468       .  S
Cd19         O23   2.507       .  S
Cd19         O21   2.395       .  S
C22          O26   1.264   1_455  A
C22         C610   1.487       .  S
O27          C30   1.266       .  A
O27         Cd32   2.450       .  S
C28          O37   1.267       .  A
C28          O33   1.267       .  A
C28         C594   1.477       .  S
O29          C35   1.272       .  A
O29         Cd32   2.511       .  S
C30          O38   1.265       .  A
C30         C562   1.470       .  S
C31          O36   1.270       .  A
C31          O34   1.263       .  A
C31         C578   1.483       .  S
Cd32         O39   2.396       .  S
Cd32         O38   2.465       .  S
Cd32         O37   2.463       .  S
Cd32         O33   2.464       .  S
Cd32         O36   2.513       .  S
Cd32         O34   2.389       .  S
C35          O39   1.261       .  A
C35         C546   1.482       .  S
O40          C43   1.266       .  A
O40         Cd45   2.481       .  S
C41          O50   1.266   1_455  A
C41          O46   1.268       .  A
C41         C629   1.485   1_455  S
O42          C48   1.268       .  A
O42         Cd45   2.492       .  S
C43          O51   1.264       .  A
C43         C530   1.477       .  S
C44          O49   1.272       .  A
C44          O47   1.261       .  A
C44         C514   1.488       .  S
Cd45         O52   2.438       .  S
Cd45         O51   2.477       .  S
Cd45         O50   2.461   1_455  S
Cd45         O46   2.455       .  S
Cd45         O49   2.527   1_455  S
Cd45         O47   2.395   1_455  S
C48          O52   1.261       .  A
C48         C581   1.472       .  S
O53          C56   1.266       .  A
O53         Cd58   2.456       .  S
C54          O63   1.265       .  A
C54          O59   1.267       .  A
C54         C565   1.494   1_554  S
O55          C61   1.269       .  A
O55         Cd58   2.506       .  S
C56          O64   1.266       .  A
C56         C501   1.470       .  S
C57          O62   1.271       .  A
C57          O60   1.263       .  A
C57         C466   1.488       .  S
Cd58         O65   2.390       .  S
Cd58         O64   2.460       .  S
Cd58         O63   2.466       .  S
Cd58         O59   2.448       .  S
Cd58         O62   2.515       .  S
Cd58         O60   2.403       .  S
C61          O65   1.262       .  A
C61         C482   1.487       .  S
O66          C69   1.266       .  A
O66         Cd71   2.450       .  S
C67          O76   1.264       .  A
C67          O72   1.266       .  A
C67         C450   1.474       .  S
O68          C74   1.269       .  A
O68         Cd71   2.500   1_655  S
C69          O77   1.267   1_455  A
C69         C437   1.484   1_455  S
C70          O75   1.266       .  A
C70          O73   1.261       .  A
C70         C485   1.471       .  S
Cd71         O78   2.417   1_455  S
Cd71         O77   2.462   1_455  S
Cd71         O76   2.467       .  S
Cd71         O72   2.466       .  S
Cd71         O75   2.469       .  S
Cd71         O73   2.436       .  S
C74          O78   1.264       .  A
C74         C421   1.484       .  S
O79          C82   1.266       .  A
O79         Cd84   2.440       .  S
C80          O89   1.265       .  A
C80          O85   1.266       .  A
C80         C402   1.481       .  S
O81          C87   1.271       .  A
O81         Cd84   2.529       .  S
C82          O90   1.266       .  A
C82         C677   1.470       .  S
C83          O88   1.268       .  A
C83          O86   1.262       .  A
C83         C386   1.468       .  S
Cd84         O91   2.358       .  S
Cd84         O90   2.464       .  S
Cd84         O89   2.481       .  S
Cd84         O85   2.478       .  S
Cd84         O88   2.491       .  S
Cd84         O86   2.415       .  S
C87          O91   1.262       .  A
C87         C370   1.484       .  S
O92          C95   1.265       .  A
O92         Cd97   2.453       .  S
C93         O102   1.266       .  A
C93          O98   1.267       .  A
C93         C354   1.470       .  S
O94         C100   1.271   1_655  A
O94         Cd97   2.485       .  S
C95         O103   1.265       .  A
C95         C434   1.478       .  S
C96         O101   1.269       .  A
C96          O99   1.262       .  A
C96         C389   1.473       .  S
Cd97        O104   2.398       .  S
Cd97        O103   2.463       .  S
Cd97        O102   2.469       .  S
Cd97         O98   2.448       .  S
Cd97        O101   2.499       .  S
Cd97         O99   2.379       .  S
C100        O104   1.262   1_455  A
C100        C341   1.477       .  S
O105        C108   1.266       .  A
O105       Cd110   2.448       .  S
C106        O115   1.265       .  A
C106        O111   1.266       .  A
C106        C309   1.483   1_554  S
O107        C113   1.270       .  A
O107       Cd110   2.505       .  S
C108        O116   1.266       .  A
C108        C469   1.471       .  S
C109        O114   1.271       .  A
C109        O112   1.264       .  A
C109        C709   1.487       .  S
Cd110       O117   2.402       .  S
Cd110       O116   2.473       .  S
Cd110       O115   2.468       .  S
Cd110       O111   2.457       .  S
Cd110       O114   2.514       .  S
Cd110       O112   2.410       .  S
C113        O117   1.260       .  A
C113        C325   1.475       .  S
O118        C121   1.264   1_565  A
O118       Cd123   2.442       .  S
C119        O128   1.267       .  A
C119        O124   1.267       .  A
C119        C613   1.471       .  S
O120        C126   1.271       .  A
O120       Cd123   2.514   1_545  S
C121        O129   1.265       .  A
C121        C293   1.472       .  S
C122        O127   1.270       .  A
C122        O125   1.263       .  A
C122        C322   1.476       .  S
Cd123       O130   2.399   1_565  S
Cd123       O129   2.477   1_565  S
Cd123       O128   2.457       .  S
Cd123       O124   2.447       .  S
Cd123       O127   2.504       .  S
Cd123       O125   2.399       .  S
C126        O130   1.263       .  A
C126        C453   1.485       .  S
O131        C134   1.268       .  A
O131       Cd136   2.455       .  S
C132        O141   1.266       .  A
C132        O137   1.267       .  A
C132        C549   1.470       .  S
O133        C139   1.272       .  A
O133       Cd136   2.490       .  S
C134        O142   1.265       .  A
C134        C258   1.482       .  S
C135        O140   1.269       .  A
C135        O138   1.263       .  A
C135        C277   1.487       .  S
Cd136       O143   2.407       .  S
Cd136       O142   2.459       .  S
Cd136       O141   2.469       .  S
Cd136       O137   2.447       .  S
Cd136       O140   2.506       .  S
Cd136       O138   2.389       .  S
C139        O143   1.262       .  A
C139        C405   1.479       .  S
O144        C147   1.268       .  A
O144       Cd149   2.451       .  S
C145        O154   1.264       .  A
C145        O150   1.267       .  A
C145        C338   1.473       .  S
O146        C152   1.271       .  A
O146       Cd149   2.492       .  S
C147        O155   1.265       .  A
C147        C290   1.488       .  S
C148        O153   1.267       .  A
C148        O151   1.262       .  A
C148        C274   1.469       .  S
Cd149       O156   2.398       .  S
Cd149       O155   2.458       .  S
Cd149       O154   2.463       .  S
Cd149       O150   2.466       .  S
Cd149       O153   2.476       .  S
Cd149       O151   2.435       .  S
C152        O156   1.261       .  A
C152        C533   1.479   1_545  S
O157        C160   1.268       .  A
O157       Cd162   2.460       .  S
C158        O167   1.265       .  A
C158        O163   1.267       .  A
C158        C661   1.482       .  S
O159        C165   1.271       .  A
O159       Cd162   2.528       .  S
C160        O168   1.265       .  A
C160        C261   1.483   1_554  S
C161        O166   1.268       .  A
C161        O164   1.261       .  A
C161        C245   1.471       .  S
Cd162       O169   2.444       .  S
Cd162       O168   2.456       .  S
Cd162       O167   2.471       .  S
Cd162       O163   2.485       .  S
Cd162       O166   2.489       .  S
Cd162       O164   2.433       .  S
C165        O169   1.263       .  A
C165        C498   1.494       .  S
O170        C173   1.265       .  A
O170       Cd175   2.452       .  S
C171        O180   1.267       .  A
C171        O176   1.266       .  A
C171        C418   1.475       .  S
O172        C178   1.270       .  A
O172       Cd175   2.523       .  S
C173        O181   1.264       .  A
C173        C226   1.488       .  S
C174        O179   1.268       .  A
C174        O177   1.263       .  A
C174        C242   1.487       .  S
Cd175       O182   2.391       .  S
Cd175       O181   2.479       .  S
Cd175       O180   2.476       .  S
Cd175       O176   2.450       .  S
Cd175       O179   2.509       .  S
Cd175       O177   2.418       .  S
C178        O182   1.261       .  A
C178        C645   1.479   1_545  S
O183        C186   1.266       .  A
O183       Cd188   2.460       .  S
C184        O193   1.265       .  A
C184        O189   1.267       .  A
C184        C306   1.481       .  S
O185        C191   1.269       .  A
O185       Cd188   2.501       .  S
C186        O194   1.266       .  A
C186        C373   1.475       .  S
C187        O192   1.270       .  A
C187        O190   1.263       .  A
C187        C597   1.492       .  S
Cd188       O195   2.424       .  S
Cd188       O194   2.483       .  S
Cd188       O193   2.463       .  S
Cd188       O189   2.458       .  S
Cd188       O192   2.523       .  S
Cd188       O190   2.454       .  S
C191        O195   1.261       .  A
C191        C210   1.472       .  S
O196        C199   1.263   1_565  A
O196       Cd201   2.439       .  S
C197        O206   1.268       .  A
C197        O202   1.266       .  A
C197        C517   1.471       .  S
O198        C204   1.272       .  A
O198       Cd201   2.528   1_545  S
C199        O207   1.266       .  A
C199        C229   1.475       .  S
C200        O205   1.270       .  A
C200        O203   1.263       .  A
C200        C213   1.482       .  S
Cd201       O208   2.393   1_565  S
Cd201       O207   2.487   1_565  S
Cd201       O206   2.483       .  S
Cd201       O202   2.431       .  S
Cd201       O205   2.511       .  S
Cd201       O203   2.409       .  S
C204        O208   1.259       .  A
C204        C357   1.483       .  S
C209        C210   1.403       .  A
C209        C214   1.413       .  A
C209        H216   1.083       .  S
C210        C211   1.414       .  A
C211        C212   1.400       .  A
C211        C218   1.521       .  S
C212        C213   1.403       .  A
C212        H217   1.083       .  S
C213        C214   1.419       .  A
C214        C215   1.516       .  S
C215        F219   1.385       .  S
C215        F220   1.383       .  S
C215        F221   1.382       .  S
C218        F222   1.383       .  S
C218        F223   1.383       .  S
C218        F224   1.385       .  S
C225        C226   1.405       .  A
C225        C230   1.403       .  A
C225        H232   1.083       .  S
C226        C227   1.423       .  A
C227        C228   1.412       .  A
C227        C234   1.519       .  S
C228        C229   1.402       .  A
C228        H233   1.083       .  S
C229        C230   1.414       .  A
C230        C231   1.521       .  S
C231        F235   1.384       .  S
C231        F236   1.382       .  S
C231        F237   1.384       .  S
C234        F238   1.383       .  S
C234        F239   1.384       .  S
C234        F240   1.385       .  S
C241        C242   1.406       .  A
C241        C246   1.401       .  A
C241        H248   1.083       .  S
C242        C243   1.421       .  A
C243        C244   1.413       .  A
C243        C250   1.517       .  S
C244        C245   1.402       .  A
C244        H249   1.083       .  S
C245        C246   1.412       .  A
C246        C247   1.521       .  S
C247        F251   1.385       .  S
C247        F252   1.383       .  S
C247        F253   1.383       .  S
C250        F254   1.383       .  S
C250        F255   1.383       .  S
C250        F256   1.385       .  S
C257        C258   1.403       .  A
C257        C262   1.407       .  A
C257        H264   1.083       .  S
C258        C259   1.419       .  A
C259        C260   1.408       .  A
C259        C266   1.520       .  S
C260        C261   1.404       .  A
C260        H265   1.083       .  S
C261        C262   1.420       .  A
C262        C263   1.520   1_556  S
C263        F267   1.385   1_554  S
C263        F268   1.383       .  S
C263        F269   1.383       .  S
C266        F270   1.383       .  S
C266        F271   1.383       .  S
C266        F272   1.385       .  S
C273        C274   1.402       .  A
C273        C278   1.412       .  A
C273        H280   1.083       .  S
C274        C275   1.410       .  A
C275        C276   1.398       .  A
C275        C282   1.519       .  S
C276        C277   1.407       .  A
C276        H281   1.083       .  S
C277        C278   1.422       .  A
C278        C279   1.517       .  S
C279        F283   1.385       .  S
C279        F284   1.384       .  S
C279        F285   1.382       .  S
C282        F286   1.382       .  S
C282        F287   1.382       .  S
C282        F288   1.385       .  S
C289        C290   1.406       .  A
C289        C294   1.403       .  A
C289        H296   1.083       .  S
C290        C291   1.424       .  A
C291        C292   1.411       .  A
C291        C298   1.519       .  S
C292        C293   1.400       .  A
C292        H297   1.083   1_545  S
C293        C294   1.413       .  A
C294        C295   1.520       .  S
C295        F299   1.384       .  S
C295        F300   1.382       .  S
C295        F301   1.384       .  S
C298        F302   1.383   1_545  S
C298        F303   1.384       .  S
C298        F304   1.385       .  S
C305        C306   1.403       .  A
C305        C310   1.407       .  A
C305        H312   1.083       .  S
C306        C307   1.418       .  A
C307        C308   1.408       .  A
C307        C314   1.520       .  S
C308        C309   1.404       .  A
C308        H313   1.083       .  S
C309        C310   1.419       .  A
C310        C311   1.519   1_556  S
C311        F315   1.385   1_554  S
C311        F316   1.383       .  S
C311        F317   1.383       .  S
C314        F318   1.383       .  S
C314        F319   1.383       .  S
C314        F320   1.385       .  S
C321        C322   1.401       .  A
C321        C326   1.400       .  A
C321        H328   1.084       .  S
C322        C323   1.416       .  A
C323        C324   1.412       .  A
C323        C330   1.516       .  S
C324        C325   1.405       .  A
C324        H329   1.083       .  S
C325        C326   1.418       .  A
C326        C327   1.523       .  S
C327        F331   1.385       .  S
C327        F332   1.383       .  S
C327        F333   1.382       .  S
C330        F334   1.383       .  S
C330        F335   1.382       .  S
C330        F336   1.385       .  S
C337        C338   1.400       .  A
C337        C342   1.403       .  A
C337        H344   1.082       .  S
C338        C339   1.414       .  A
C339        C340   1.407       .  A
C339        C346   1.514       .  S
C340        C341   1.404       .  A
C340        H345   1.082       .  S
C341        C342   1.420       .  A
C342        C343   1.520       .  S
C343        F347   1.385       .  S
C343        F348   1.382   1_455  S
C343        F349   1.384   1_455  S
C346        F350   1.382       .  S
C346        F351   1.381       .  S
C346        F352   1.384       .  S
C353        C354   1.396       .  A
C353        C358   1.402       .  A
C353        H360   1.084       .  S
C354        C355   1.413       .  A
C355        C356   1.411       .  A
C355        C362   1.516       .  S
C356        C357   1.406       .  A
C356        H361   1.083       .  S
C357        C358   1.423       .  A
C358        C359   1.518       .  S
C359        F363   1.385       .  S
C359        F364   1.382       .  S
C359        F365   1.384       .  S
C362        F366   1.382       .  S
C362        F367   1.384       .  S
C362        F368   1.384       .  S
C369        C370   1.402       .  A
C369        C374   1.394       .  A
C369        H376   1.083       .  S
C370        C371   1.421       .  A
C371        C372   1.417       .  A
C371        C378   1.515       .  S
C372        C373   1.404       .  A
C372        H377   1.083       .  S
C373        C374   1.409       .  A
C374        C375   1.509       .  S
C375        F379   1.385       .  S
C375        F380   1.379       .  S
C375        F381   1.383       .  S
C378        F382   1.383       .  S
C378        F383   1.383       .  S
C378        F384   1.385       .  S
C385        C386   1.403       .  A
C385        C390   1.414       .  A
C385        H392   1.082       .  S
C386        C387   1.412       .  A
C387        C388   1.394       .  A
C387        C394   1.516       .  S
C388        C389   1.400       .  A
C388        H393   1.083       .  S
C389        C390   1.417       .  A
C390        C391   1.515       .  S
C391        F395   1.384       .  S
C391        F396   1.384       .  S
C391        F397   1.382       .  S
C394        F398   1.383       .  S
C394        F399   1.382       .  S
C394        F400   1.385       .  S
C401        C402   1.402       .  A
C401        C406   1.407       .  A
C401        H408   1.083       .  S
C402        C403   1.416       .  A
C403        C404   1.407       .  A
C403        C410   1.513       .  S
C404        C405   1.402       .  A
C404        H409   1.083       .  S
C405        C406   1.420       .  A
C406        C407   1.520       .  S
C407        F411   1.385       .  S
C407        F412   1.382       .  S
C407        F413   1.384       .  S
C410        F414   1.381       .  S
C410        F415   1.380       .  S
C410        F416   1.385       .  S
C417        C418   1.402       .  A
C417        C422   1.410       .  A
C417        H424   1.083       .  S
C418        C419   1.415       .  A
C419        C420   1.404       .  A
C419        C426   1.519       .  S
C420        C421   1.405       .  A
C420        H425   1.084       .  S
C421        C422   1.419       .  A
C422        C423   1.517       .  S
C423        F427   1.385       .  S
C423        F428   1.383       .  S
C423        F429   1.383       .  S
C426        F430   1.383       .  S
C426        F431   1.382       .  S
C426        F432   1.385       .  S
C433        C434   1.402   1_455  A
C433        C438   1.406       .  A
C433        H440   1.084       .  S
C434        C435   1.415       .  A
C435        C436   1.407       .  A
C435        C442   1.518       .  S
C436        C437   1.406       .  A
C436        H441   1.084       .  S
C437        C438   1.420   1_655  A
C438        C439   1.519       .  S
C439        F443   1.385       .  S
C439        F444   1.384       .  S
C439        F445   1.382       .  S
C442        F446   1.384       .  S
C442        F447   1.382       .  S
C442        F448   1.385       .  S
C449        C450   1.402       .  A
C449        C454   1.411       .  A
C449        H456   1.083       .  S
C450        C451   1.413       .  A
C451        C452   1.404       .  A
C451        C458   1.520       .  S
C452        C453   1.407       .  A
C452        H457   1.083       .  S
C453        C454   1.419       .  A
C454        C455   1.517       .  S
C455        F459   1.385       .  S
C455        F460   1.383       .  S
C455        F461   1.383       .  S
C458        F462   1.383       .  S
C458        F463   1.383       .  S
C458        F464   1.385       .  S
C465        C466   1.408       .  A
C465        C470   1.403       .  A
C465        H472   1.083       .  S
C466        C467   1.421       .  A
C467        C468   1.412       .  A
C467        C474   1.517       .  S
C468        C469   1.402       .  A
C468        H473   1.083       .  S
C469        C470   1.410       .  A
C470        C471   1.519       .  S
C471        F475   1.385       .  S
C471        F476   1.383       .  S
C471        F477   1.383       .  S
C474        F478   1.383       .  S
C474        F479   1.383       .  S
C474        F480   1.385       .  S
C481        C482   1.408       .  A
C481        C486   1.400       .  A
C481        H488   1.083       .  S
C482        C483   1.421       .  A
C483        C484   1.410       .  A
C483        C490   1.518       .  S
C484        C485   1.403       .  A
C484        H489   1.084       .  S
C485        C486   1.412       .  A
C486        C487   1.522       .  S
C487        F491   1.385       .  S
C487        F492   1.382       .  S
C487        F493   1.384       .  S
C490        F494   1.383       .  S
C490        F495   1.383       .  S
C490        F496   1.385       .  S
C497        C498   1.409       .  A
C497        C502   1.414       .  A
C497        H504   1.082       .  S
C498        C499   1.424       .  A
C499        C500   1.399       .  A
C499        C506   1.509       .  S
C500        C501   1.392       .  A
C500        H505   1.084       .  S
C501        C502   1.412       .  A
C502        C503   1.514       .  S
C503        F507   1.384       .  S
C503        F508   1.382       .  S
C503        F509   1.384       .  S
C506        F510   1.381       .  S
C506        F511   1.380       .  S
C506        F512   1.385       .  S
C513        C514   1.409       .  A
C513        C518   1.413       .  A
C513        H520   1.082       .  S
C514        C515   1.424       .  A
C515        C516   1.401       .  A
C515        C522   1.520       .  S
C516        C517   1.395       .  A
C516        H521   1.080       .  S
C517        C518   1.411       .  A
C518        C519   1.514       .  S
C519        F523   1.384       .  S
C519        F524   1.383       .  S
C519        F525   1.384       .  S
C522        F526   1.383       .  S
C522        F527   1.383       .  S
C522        F528   1.385       .  S
C529        C530   1.399       .  A
C529        C534   1.403       .  A
C529        H536   1.082       .  S
C530        C531   1.415       .  A
C531        C532   1.406       .  A
C531        C538   1.510       .  S
C532        C533   1.402       .  A
C532        H537   1.083       .  S
C533        C534   1.421       .  A
C534        C535   1.520   1_565  S
C535        F539   1.385       .  S
C535        F540   1.382       .  S
C535        F541   1.384       .  S
C538        F542   1.382       .  S
C538        F543   1.381       .  S
C538        F544   1.385       .  S
C545        C546   1.405       .  A
C545        C550   1.409       .  A
C545        H552   1.083       .  S
C546        C547   1.422       .  A
C547        C548   1.404       .  A
C547        C554   1.520       .  S
C548        C549   1.398       .  A
C548        H553   1.084       .  S
C549        C550   1.412       .  A
C550        C551   1.516       .  S
C551        F555   1.384       .  S
C551        F556   1.382       .  S
C551        F557   1.384       .  S
C554        F558   1.382       .  S
C554        F559   1.383       .  S
C554        F560   1.385       .  S
C561        C562   1.399       .  A
C561        C566   1.411       .  A
C561        H568   1.083       .  S
C562        C563   1.409       .  A
C563        C564   1.403       .  A
C563        C570   1.520       .  S
C564        C565   1.409       .  A
C564        H569   1.082       .  S
C565        C566   1.427       .  A
C566        C567   1.520       .  S
C567        F571   1.385       .  S
C567        F572   1.383   1_556  S
C567        F573   1.384   1_556  S
C570        F574   1.383       .  S
C570        F575   1.384       .  S
C570        F576   1.384       .  S
C577        C578   1.402       .  A
C577        C582   1.396       .  A
C577        H584   1.083       .  S
C578        C579   1.420       .  A
C579        C580   1.415       .  A
C579        C586   1.515       .  S
C580        C581   1.403       .  A
C580        H585   1.083       .  S
C581        C582   1.410       .  A
C582        C583   1.515       .  S
C583        F587   1.385       .  S
C583        F588   1.383       .  S
C583        F589   1.381       .  S
C586        F590   1.383       .  S
C586        F591   1.382       .  S
C586        F592   1.385       .  S
C593        C594   1.396       .  A
C593        C598   1.401       .  A
C593        H600   1.083       .  S
C594        C595   1.414       .  A
C595        C596   1.413       .  A
C595        C602   1.515       .  S
C596        C597   1.408       .  A
C596        H601   1.082       .  S
C597        C598   1.421       .  A
C598        C599   1.509       .  S
C599        F603   1.385       .  S
C599        F604   1.379       .  S
C599        F605   1.383       .  S
C602        F606   1.382       .  S
C602        F607   1.384       .  S
C602        F608   1.384       .  S
C609        C610   1.407       .  A
C609        C614   1.412       .  A
C609        H616   1.082       .  S
C610        C611   1.421       .  A
C611        C612   1.400       .  A
C611        C618   1.512       .  S
C612        C613   1.395       .  A
C612        H617   1.084       .  S
C613        C614   1.413       .  A
C614        C615   1.516       .  S
C615        F619   1.384       .  S
C615        F620   1.382       .  S
C615        F621   1.384       .  S
C618        F622   1.382   1_455  S
C618        F623   1.383   1_455  S
C618        F624   1.385       .  S
C625        C626   1.403       .  A
C625        C630   1.408       .  A
C625        H632   1.083       .  S
C626        C627   1.419   1_655  A
C627        C628   1.408       .  A
C627        C634   1.520       .  S
C628        C629   1.404   1_455  A
C628        H633   1.083       .  S
C629        C630   1.421       .  A
C630        C631   1.520       .  S
C631        F635   1.385       .  S
C631        F636   1.383       .  S
C631        F637   1.383       .  S
C634        F638   1.383       .  S
C634        F639   1.383       .  S
C634        F640   1.385       .  S
C641        C642   1.405       .  A
C641        C646   1.411       .  A
C641        H648   1.083       .  S
C642        C643   1.416       .  A
C643        C644   1.403       .  A
C643        C650   1.512       .  S
C644        C645   1.402       .  A
C644        H649   1.083       .  S
C645        C646   1.416       .  A
C646        C647   1.516       .  S
C647        F651   1.384       .  S
C647        F652   1.383       .  S
C647        F653   1.383       .  S
C650        F654   1.382       .  S
C650        F655   1.378       .  S
C650        F656   1.385       .  S
C657        C658   1.399       .  A
C657        C662   1.397       .  A
C657        H664   1.083       .  S
C658        C659   1.417       .  A
C659        C660   1.414       .  A
C659        C666   1.514       .  S
C660        C661   1.405       .  A
C660        H665   1.083       .  S
C661        C662   1.414       .  A
C662        C663   1.508       .  S
C663        F667   1.385       .  S
C663        F668   1.382       .  S
C663        F669   1.379       .  S
C666        F670   1.384       .  S
C666        F671   1.383       .  S
C666        F672   1.384       .  S
C673        C674   1.407       .  A
C673        C678   1.403       .  A
C673        H680   1.082       .  S
C674        C675   1.425       .  A
C675        C676   1.410       .  A
C675        C682   1.520       .  S
C676        C677   1.399       .  A
C676        H681   1.083       .  S
C677        C678   1.412       .  A
C678        C679   1.520       .  S
C679        F683   1.384       .  S
C679        F684   1.382       .  S
C679        F685   1.384       .  S
C682        F686   1.383   1_556  S
C682        F687   1.384   1_556  S
C682        F688   1.385       .  S
C689        C690   1.398       .  A
C689        C694   1.405       .  A
C689        H696   1.083       .  S
C690        C691   1.417       .  A
C691        C692   1.407       .  A
C691        C698   1.520       .  S
C692        C693   1.407       .  A
C692        H697   1.083       .  S
C693        C694   1.429       .  A
C694        C695   1.524       .  S
C695        F699   1.385       .  S
C695        F700   1.384       .  S
C695        F701   1.384       .  S
C698        F702   1.382       .  S
C698        F703   1.384       .  S
C698        F704   1.385       .  S
C705        C706   1.402       .  A
C705        C710   1.412       .  A
C705        H712   1.083       .  S
C706        C707   1.415       .  A
C707        C708   1.404       .  A
C707        C714   1.519       .  S
C708        C709   1.406       .  A
C708        H713   1.083       .  S
C709        C710   1.420       .  A
C710        C711   1.516       .  S
C711        F715   1.385       .  S
C711        F716   1.383       .  S
C711        F717   1.382       .  S
C714        F718   1.383       .  S
C714        F719   1.383       .  S
C714        F720   1.385       .  S
