geometry optimzed in LAMMPS
_audit_creation_date              2020-11-30 
_audit_creation_method            'lammps2cif' 
_symmetry_space_group_name_H-M    'P1' 
_symmetry_Int_Tables_number       1 
_symmetry_cell_setting            triclinic 
loop_ 
_symmetry_equiv_pos_as_xyz 
  x,y,z 
_cell_length_a                    60.57491571018433 
_cell_length_b                    60.843192027689696 
_cell_length_c                    38.52545856655389 
_cell_angle_alpha                 90.21035663874585 
_cell_angle_beta                  89.49556438834344 
_cell_angle_gamma                 89.81859134797082 
loop_ 
_atom_site_label 
_atom_site_type_symbol 
_atom_site_fract_x 
_atom_site_fract_y 
_atom_site_fract_z 
_atom_site_charge 
In1        In  0.08389492  0.95047697  0.11877288     1.36870
C2          C  0.04066805  0.94519295  0.12774391     0.77070
O3          O  0.08983616  0.94932234  0.17730887    -0.61370
O4          O  0.09533985  0.97890928  0.15009550    -0.52290
C5          C  0.11257365  0.92130103  0.09242974     0.69740
O6          O  0.09337814  0.91600169  0.10216520    -0.47140
C7          C  0.08410724  0.97259515  0.06001944     0.74440
O8          O  0.05393270  0.92916632  0.12880717    -0.59000
O9          O  0.09163546  0.98050778  0.08774653    -0.49090
O10         O  0.04956641  0.96356988  0.12269223    -0.55430
C11         C  0.09415289  0.96964323  0.17911020     0.84620
O12         O  0.11803303  0.94037457  0.10168800    -0.57330
O13         O  0.07552723  0.95386895  0.06284464    -0.60620
In14       In  0.90253736  0.95292333  0.11997123     1.36870
C15         C  0.94578733  0.94623830  0.12608488     0.77070
O16         O  0.91618633  0.96018941  0.06738435    -0.61370
O17         O  0.89050382  0.98067042  0.08746364    -0.52290
C18         C  0.87296372  0.92377015  0.09783689     0.69740
O19         O  0.88975819  0.91796993  0.11476142    -0.47140
C20         C  0.89256797  0.97058918  0.18153450     0.74440
O21         O  0.93272341  0.93103236  0.11754290    -0.59000
O22         O  0.89236238  0.98124557  0.15365136    -0.49090
O23         O  0.93654473  0.96446249  0.13210947    -0.55430
C24         C  0.90320738  0.97606531  0.06237134     0.84620
O25         O  0.87045561  0.94420158  0.09558838    -0.57330
O26         O  0.89645329  0.95030591  0.17775194    -0.60620
In27       In  0.78641677  0.65778473  0.49610922     1.36870
C28         C  0.79064764  0.70102751  0.49087684     0.77070
O29         O  0.78547939  0.65289034  0.43788800    -0.61370
O30         O  0.75589602  0.64936934  0.46692559    -0.52290
C31         C  0.81887636  0.63097758  0.01584848     0.69740
O32         O  0.81991081  0.65154489  0.01874212    -0.47140
C33         C  0.76469788  0.65362005  0.05536112     0.74440
O34         O  0.80466582  0.68812917  0.47721751    -0.59000
O35         O  0.75854501  0.64405964  0.02798259    -0.49090
O36         O  0.77443127  0.69170568  0.50498901    -0.55430
C37         C  0.76483593  0.64972018  0.43732713     0.84620
O38         O  0.80246918  0.62423957  0.49897166    -0.57330
O39         O  0.78196389  0.66490311  0.05211671    -0.60620
In40       In  0.78414485  0.83862949  0.49993533     1.36870
C41         C  0.78909714  0.79548006  0.49206606     0.77070
O42         O  0.78038270  0.83325194  0.05649632    -0.61370
O43         O  0.75440097  0.84978205  0.03040588    -0.52290
C44         C  0.81615935  0.86538188  0.02088233     0.69740
O45         O  0.81780401  0.84476939  0.02181878    -0.47140
C46         C  0.76450976  0.84834220  0.44014432     0.74440
O47         O  0.80242296  0.80888889  0.47842772    -0.59000
O48         O  0.75444223  0.84784925  0.46891375    -0.49090
O49         O  0.77333525  0.80424458  0.50848492    -0.55430
C50         C  0.76173362  0.84237591  0.05864553     0.84620
O51         O  0.79913099  0.87231943  0.00578096    -0.57330
O52         O  0.78502777  0.84496094  0.44240905    -0.60620
In53       In  0.08451668  0.53984399  0.11180731     1.36870
C54         C  0.04075416  0.54390697  0.11643080     0.77070
O55         O  0.07940486  0.53769527  0.05501626    -0.61370
O56         O  0.09046027  0.50901809  0.08131241    -0.52290
C57         C  0.11299809  0.57014407  0.08922322     0.69740
O58         O  0.09332192  0.57477216  0.09746898    -0.47140
C59         C  0.09372547  0.52147256  0.17285137     0.74440
O60         O  0.05350732  0.55918582  0.12575843    -0.59000
O61         O  0.09848040  0.51252822  0.14424673    -0.49090
O62         O  0.05051021  0.52680878  0.10602580    -0.55430
C63         C  0.08494291  0.51774489  0.05297939     0.84620
O64         O  0.11875999  0.55094375  0.09735601    -0.57330
O65         O  0.08609113  0.54072227  0.17014325    -0.60620
In66       In  0.90160038  0.53986385  0.11294564     1.36870
C67         C  0.94539156  0.54389800  0.11355286     0.77070
O68         O  0.90384109  0.53881847  0.17132603    -0.61370
O69         O  0.88405911  0.51488798  0.14673605    -0.52290
C70         C  0.87302280  0.57072377  0.09367932     0.69740
O71         O  0.89163900  0.57551801  0.10604014    -0.47140
C72         C  0.90055602  0.51823680  0.05351504     0.74440
O73         O  0.93275287  0.55969170  0.12175575    -0.59000
O74         O  0.89777863  0.50881178  0.08240107    -0.49090
O75         O  0.93554720  0.52636255  0.10604368    -0.55430
C76         C  0.89260328  0.52155858  0.17448529     0.84620
O77         O  0.86812156  0.55068545  0.09554047    -0.57330
O78         O  0.90424001  0.53858775  0.05524723    -0.60620
In79       In  0.19689520  0.65768060  0.48201120     1.36870
C80         C  0.19234259  0.70090558  0.47443134     0.77070
O81         O  0.20177310  0.66747081  0.03697368    -0.61370
O82         O  0.22427689  0.64452710  0.01476014    -0.52290
C83         C  0.16621876  0.63006230  0.00624300     0.69740
O84         O  0.16264463  0.65031251  0.00224380    -0.47140
C85         C  0.21659272  0.64827498  0.42121003     0.74440
O86         O  0.17700816  0.68780972  0.46635821    -0.59000
O87         O  0.22670515  0.64970094  0.44955293    -0.49090
O88         O  0.20966353  0.69161567  0.48468814    -0.55430
C89         C  0.21814186  0.65505922  0.04148487     0.84620
O90         O  0.18428644  0.62362387  0.99319755    -0.57330
O91         O  0.19590653  0.65043830  0.42432645    -0.60620
In92       In  0.19308550  0.83932873  0.46843310     1.36870
C93         C  0.21536457  0.84103630  0.02674617     0.77070
O94         O  0.18099101  0.87307496  0.48348239    -0.61370
O95         O  0.15858810  0.84675964  0.48786763    -0.52290
C96         C  0.21174567  0.84911658  0.40721918     0.69740
O97         O  0.22176067  0.84961669  0.43568637    -0.47140
C98         C  0.19014222  0.79577852  0.46347589     0.74440
O99         O  0.22219905  0.85024722  0.49938020    -0.59000
O100        O  0.17431504  0.80811149  0.45464960    -0.49090
O101        O  0.19733026  0.83096890  0.02384845    -0.55430
C102        C  0.16266739  0.86653000  0.49521941     0.84620
O103        O  0.19135631  0.84506066  0.41026488    -0.57330
O104        O  0.20720244  0.80591594  0.47264890    -0.60620
In105      In  0.19567727  0.15960950  0.49444912     1.36870
C106        C  0.19056721  0.20285438  0.49901176     0.77070
O107        O  0.19531374  0.15294397  0.05204084    -0.61370
O108        O  0.22583462  0.15229049  0.02503733    -0.52290
C109        C  0.16551088  0.13073643  0.47351660     0.69740
O110        O  0.16115394  0.15083014  0.47795806    -0.47140
C111        C  0.21659946  0.15642071  0.43460748     0.74440
O112        O  0.17667460  0.18989959  0.51248988    -0.59000
O113        O  0.22439204  0.14838389  0.46213349    -0.49090
O114        O  0.20701877  0.19363955  0.48514863    -0.55430
C115        C  0.21604027  0.15073163  0.05381009     0.84620
O116        O  0.18430766  0.12519847  0.48426776    -0.57330
O117        O  0.19841900  0.16627875  0.43829193    -0.60620
In118      In  0.19664954  0.34040324  0.49048661     1.36870
C119        C  0.19192616  0.29721341  0.49761111     0.77070
O120        O  0.20135136  0.33492474  0.43410141    -0.61370
O121        O  0.22646342  0.35227220  0.46096739    -0.52290
C122        C  0.16452971  0.36663733  0.46778852     0.69740
O123        O  0.16339611  0.34600430  0.46675467    -0.47140
C124        C  0.21533179  0.34925932  0.05157922     0.74440
O125        O  0.17854880  0.31065697  0.51139868    -0.59000
O126        O  0.22586474  0.34941948  0.02318352    -0.49090
O127        O  0.20762586  0.30592158  0.48117422    -0.55430
C128        C  0.21960059  0.34470808  0.43244937     0.84620
O129        O  0.18084952  0.37391876  0.48435163    -0.57330
O130        O  0.19484879  0.34613191  0.04826175    -0.60620
In131      In  0.08630741  0.03837484  0.36927880     1.36870
C132        C  0.04310243  0.04203998  0.35916564     0.77070
O133        O  0.09344226  0.03802621  0.31157871    -0.61370
O134        O  0.09586232  0.00814544  0.33901814    -0.52290
C135        C  0.11344887  0.06982748  0.39135152     0.69740
O136        O  0.09329047  0.07332051  0.38546058    -0.47140
C137        C  0.08686613  0.01851745  0.43008816     0.74440
O138        O  0.05614368  0.05756727  0.35187860    -0.59000
O139        O  0.09778105  0.01148861  0.40423881    -0.49090
O140        O  0.05248646  0.02517705  0.37092745    -0.55430
C141        C  0.09644259  0.01745905  0.30993549     0.84620
O142        O  0.12007052  0.05118921  0.38137599    -0.57330
O143        O  0.07550701  0.03546339  0.42438183    -0.60620
In144      In  0.90419741  0.03914543  0.37011969     1.36870
C145        C  0.94754649  0.04147245  0.35990723     0.77070
O146        O  0.91602707  0.03555726  0.42416175    -0.61370
O147        O  0.89083452  0.01391238  0.40664626    -0.52290
C148        C  0.87507920  0.06947589  0.39083342     0.69740
O149        O  0.89536327  0.07379392  0.38704937    -0.47140
C150        C  0.89562983  0.01764002  0.31166451     0.74440
O151        O  0.93508768  0.05763427  0.35288650    -0.59000
O152        O  0.89695455  0.00848479  0.34080482    -0.49090
O153        O  0.93750899  0.02505933  0.37168104    -0.55430
C154        C  0.90343622  0.01968344  0.43094314     0.84620
O155        O  0.86975428  0.05080238  0.37963711    -0.57330
O156        O  0.89699673  0.03837680  0.31255141    -0.60620
In157      In  0.08030561  0.45243146  0.36144421     1.36870
C158        C  0.03704911  0.44576116  0.35609403     0.77070
O159        O  0.07043195  0.45648815  0.41694173    -0.61370
O160        O  0.09154929  0.48033300  0.39394382    -0.52290
C161        C  0.10975293  0.42344743  0.38455829     0.69740
O162        O  0.09210302  0.41743822  0.37015116    -0.47140
C163        C  0.08901700  0.47317706  0.30191332     0.74440
O164        O  0.05087485  0.43081047  0.34886170    -0.59000
O165        O  0.08527528  0.48266140  0.33031803    -0.49090
O166        O  0.04534758  0.46375943  0.36515063    -0.55430
C167        C  0.08140475  0.47394120  0.42079239     0.84620
O168        O  0.11335553  0.44375871  0.38313361    -0.57330
O169        O  0.09006838  0.45248545  0.30400353    -0.60620
In170      In  0.89900471  0.45164897  0.36205792     1.36870
C171        C  0.94243693  0.44694680  0.35568959     0.77070
O172        O  0.90123302  0.45281114  0.30372628    -0.61370
O173        O  0.88300934  0.47799386  0.32920165    -0.52290
C174        C  0.87182477  0.41974016  0.38376757     0.69740
O175        O  0.89240295  0.41725383  0.38113899    -0.47140
C176        C  0.89763666  0.47411271  0.42109971     0.74440
O177        O  0.92917368  0.43316005  0.34295424    -0.59000
O178        O  0.89080137  0.48213989  0.39295638    -0.49090
O179        O  0.93348717  0.46312559  0.37074808    -0.55430
C180        C  0.89088108  0.47072014  0.30099506     0.84620
O181        O  0.86493264  0.43741050  0.37073945    -0.57330
O182        O  0.90533476  0.45493576  0.41831895    -0.60620
In183      In  0.78220200  0.15381766  0.48839584     1.36870
C184        C  0.78798286  0.19693312  0.49632746     0.77070
O185        O  0.77843391  0.16092814  0.43224582    -0.61370
O186        O  0.75414672  0.14097939  0.45665904    -0.52290
C187        C  0.81488647  0.12711286  0.46721483     0.69740
O188        O  0.81736316  0.14748450  0.47130375    -0.47140
C189        C  0.76074885  0.14429829  0.04755751     0.74440
O190        O  0.80051447  0.18311659  0.51064087    -0.59000
O191        O  0.75120239  0.14774288  0.01922148    -0.49090
O192        O  0.77256916  0.18855421  0.47912515    -0.55430
C193        C  0.76106381  0.14981288  0.42901784     0.84620
O194        O  0.79640605  0.12019850  0.47774474    -0.57330
O195        O  0.78157188  0.14491727  0.04536574    -0.60620
In196      In  0.78750942  0.33493640  0.49427650     1.36870
C197        C  0.79169122  0.29150748  0.99894225     0.77070
O198        O  0.78735122  0.34038622  0.05260820    -0.61370
O199        O  0.75789344  0.34542850  0.02488754    -0.52290
C200        C  0.81694112  0.36414277  0.47106597     0.69740
O201        O  0.82259128  0.34530676  0.48147974    -0.47140
C202        C  0.76696275  0.33459292  0.43433497     0.74440
O203        O  0.80703668  0.30417646  0.50844462    -0.59000
O204        O  0.75860983  0.34319533  0.46134666    -0.49090
O205        O  0.77444123  0.30113113  0.98930034    -0.55430
C206        C  0.76689696  0.34454030  0.05407230     0.84620
O207        O  0.79699663  0.36880649  0.47698667    -0.57330
O208        O  0.78576593  0.32613370  0.43847920    -0.60620
In209      In  0.28325064  0.15826391  0.24367685     1.36870
C210        C  0.28871483  0.20146385  0.23990746     0.77070
O211        O  0.28290912  0.15304424  0.18559543    -0.61370
O212        O  0.25305552  0.15010842  0.21393183    -0.52290
C213        C  0.31263734  0.12811905  0.26143873     0.69740
O214        O  0.31800508  0.14779853  0.25564510    -0.47140
C215        C  0.26315683  0.15567354  0.30426123     0.74440
O216        O  0.30321289  0.18830466  0.22834771    -0.59000
O217        O  0.25421779  0.14953571  0.27639449    -0.49090
O218        O  0.27165453  0.19239024  0.25172455    -0.55430
C219        C  0.26227168  0.15012259  0.18461499     0.84620
O220        O  0.29305585  0.12349398  0.25367275    -0.57330
O221        O  0.28233950  0.16339798  0.30088420    -0.60620
In222      In  0.28466745  0.33937158  0.24035665     1.36870
C223        C  0.28903982  0.29605954  0.23509691     0.77070
O224        O  0.27993597  0.33178626  0.29621425    -0.61370
O225        O  0.25769310  0.35434069  0.27291709    -0.52290
C226        C  0.31728067  0.36447781  0.26352980     0.69740
O227        O  0.31984732  0.34437463  0.25663624    -0.47140
C228        C  0.26376427  0.34863586  0.18108257     0.74440
O229        O  0.30294527  0.30889929  0.22138925    -0.59000
O230        O  0.25411930  0.34453612  0.20937439    -0.49090
O231        O  0.27299141  0.30555039  0.24975895    -0.55430
C232        C  0.26347575  0.34429192  0.30000473     0.84620
O233        O  0.29913214  0.37226602  0.25336772    -0.57330
O234        O  0.28457460  0.34897255  0.18328471    -0.60620
In235      In  0.69359087  0.15126718  0.23997617     1.36870
C236        C  0.69202445  0.19506402  0.23730998     0.77070
O237        O  0.69561090  0.15731870  0.29697052    -0.61370
O238        O  0.72241685  0.14092447  0.27192945    -0.52290
C239        C  0.66264937  0.12289183  0.26012583     0.69740
O240        O  0.65821934  0.14269164  0.25333828    -0.47140
C241        C  0.71328169  0.14271479  0.17903918     0.74440
O242        O  0.67525181  0.18350642  0.23055898    -0.59000
O243        O  0.72226648  0.13992588  0.20796773    -0.49090
O244        O  0.70897207  0.18398250  0.24388770    -0.55430
C245        C  0.71423004  0.14826192  0.29991359     0.84620
O246        O  0.68202291  0.11719881  0.25187959    -0.57330
O247        O  0.69308147  0.14795970  0.18108077    -0.60620
In248      In  0.69946211  0.33398409  0.24545454     1.36870
C249        C  0.69385007  0.29057486  0.23940915     0.77070
O250        O  0.69929670  0.33962523  0.18734928    -0.61370
O251        O  0.72878711  0.34499139  0.21466195    -0.52290
C252        C  0.67103259  0.36480160  0.26664705     0.69740
O253        O  0.66470499  0.34667559  0.25418738    -0.47140
C254        C  0.71997079  0.33334844  0.30532327     0.74440
O255        O  0.67809576  0.30389405  0.23494937    -0.59000
O256        O  0.72934214  0.33912322  0.27744168    -0.49090
O257        O  0.71193294  0.29973895  0.24589318    -0.55430
C258        C  0.71960159  0.34425715  0.18561831     0.84620
O259        O  0.69152534  0.36791057  0.26451617    -0.57330
O260        O  0.70015999  0.32735760  0.30231310    -0.60620
In261      In  0.39851435  0.03438483  0.34683391     1.36870
C262        C  0.44122354  0.03809439  0.35964373     0.77070
O263        O  0.39495190  0.03504135  0.40456154    -0.61370
O264        O  0.38660346  0.00554552  0.37810841    -0.52290
C265        C  0.37191439  0.06696409  0.32794259     0.69740
O266        O  0.39254765  0.06886297  0.32926183    -0.47140
C267        C  0.39846375  0.01368834  0.28639668     0.74440
O268        O  0.42800238  0.05400124  0.36378260    -0.59000
O269        O  0.38636248  0.00778310  0.31150725    -0.49090
O270        O  0.43239733  0.02066775  0.34872020    -0.55430
C271        C  0.38980468  0.01502082  0.40675388     0.84620
O272        O  0.36474910  0.04903968  0.33982914    -0.57330
O273        O  0.41041633  0.03008649  0.29258130    -0.60620
In274      In  0.57932091  0.03452439  0.36505268     1.36870
C275        C  0.53578241  0.03728152  0.37264495     0.77070
O276        O  0.57165155  0.03122601  0.30906223    -0.61370
O277        O  0.59187450  0.00667447  0.33248508    -0.52290
C278        C  0.60700713  0.06564399  0.34347446     0.69740
O279        O  0.58669605  0.06930033  0.34858351    -0.47140
C280        C  0.58828227  0.01448320  0.42467115     0.74440
O281        O  0.54820332  0.05300054  0.38141906    -0.59000
O282        O  0.58585836  0.00458185  0.39626016    -0.49090
O283        O  0.54581233  0.02090652  0.36033950    -0.55430
C284        C  0.58244657  0.01362559  0.30557352     0.84620
O285        O  0.61328879  0.04696997  0.35349795    -0.57330
O286        O  0.58756228  0.03521030  0.42249512    -0.60620
In287      In  0.58604597  0.45331839  0.36972045     1.36870
C288        C  0.54305661  0.44690170  0.37722046     0.77070
O289        O  0.59115684  0.45244420  0.42751795    -0.61370
O290        O  0.59458551  0.48294522  0.40195333    -0.52290
C291        C  0.61392559  0.42229077  0.34713090     0.69740
O292        O  0.59337555  0.41953393  0.34897854    -0.47140
C293        C  0.58669364  0.47495413  0.31025640     0.74440
O294        O  0.55694576  0.43307257  0.38812165    -0.59000
O295        O  0.59686994  0.48180184  0.33668752    -0.49090
O296        O  0.55130517  0.46408061  0.36453927    -0.55430
C297        C  0.59423660  0.47287367  0.43048677     0.84620
O298        O  0.62048080  0.44005284  0.36041922    -0.57330
O299        O  0.57650178  0.45723912  0.31485148    -0.60620
In300      In  0.40519010  0.44581515  0.37056836     1.36870
C301        C  0.44857621  0.44148885  0.37384415     0.77070
O302        O  0.40939599  0.44664080  0.31332253    -0.61370
O303        O  0.40109547  0.47649025  0.33955247    -0.52290
C304        C  0.37488301  0.41745127  0.34949002     0.69740
O305        O  0.39463728  0.41172153  0.35473006    -0.47140
C306        C  0.39679687  0.46347798  0.43239347     0.74440
O307        O  0.43590437  0.42594698  0.38265558    -0.59000
O308        O  0.39101054  0.47253751  0.40453417    -0.49090
O309        O  0.43895540  0.45888054  0.36490137    -0.55430
C310        C  0.40503426  0.46683151  0.31104528     0.84620
O311        O  0.37023560  0.43649191  0.36024735    -0.57330
O312        O  0.40490492  0.44447070  0.42867081    -0.60620
In313      In  0.69805043  0.65822292  0.24648075     1.36870
C314        C  0.69400240  0.70167531  0.25117107     0.77070
O315        O  0.69721668  0.65316998  0.30482209    -0.61370
O316        O  0.72728008  0.64845649  0.27764920    -0.52290
C317        C  0.66772354  0.62974432  0.22492479     0.69740
O318        O  0.66366992  0.64996812  0.22868358    -0.47140
C319        C  0.71991115  0.65516213  0.18721720     0.74440
O320        O  0.67867172  0.68903908  0.26106599    -0.59000
O321        O  0.72757904  0.64796448  0.21532183    -0.49090
O322        O  0.71113284  0.69188530  0.24084323    -0.55430
C323        C  0.71767534  0.64906779  0.30666998     0.84620
O324        O  0.68615573  0.62392549  0.23671530    -0.57330
O325        O  0.70109680  0.66394705  0.18962128    -0.60620
In326      In  0.69632646  0.84014248  0.25101030     1.36870
C327        C  0.69254946  0.79666122  0.25550520     0.77070
O328        O  0.69979134  0.83191420  0.19489138    -0.61370
O329        O  0.72456328  0.85158495  0.21840490    -0.52290
C330        C  0.66564522  0.86760572  0.22813126     0.69740
O331        O  0.66082163  0.84887645  0.23989577    -0.47140
C332        C  0.71570563  0.84988988  0.31131417     0.74440
O333        O  0.67692657  0.80933440  0.26443224    -0.59000
O334        O  0.72579118  0.84855030  0.28272761    -0.49090
O335        O  0.70976855  0.80640482  0.24567612    -0.55430
C336        C  0.71761805  0.84236694  0.19120639     0.84620
O337        O  0.68537665  0.87324595  0.23276833    -0.57330
O338        O  0.69507797  0.84756349  0.30881019    -0.60620
In339      In  0.39997352  0.94809963  0.09567499     1.36870
C340        C  0.44338881  0.94227753  0.09251994     0.77070
O341        O  0.39118520  0.94702003  0.03866395    -0.61370
O342        O  0.39600401  0.97791191  0.06325191    -0.52290
C343        C  0.37040816  0.91844818  0.11545989     0.69740
O344        O  0.39044233  0.91359624  0.11005146    -0.47140
C345        C  0.39677097  0.96934778  0.15491946     0.74440
O346        O  0.43040408  0.92850205  0.07905893    -0.59000
O347        O  0.38895854  0.97711966  0.12724366    -0.49090
O348        O  0.43412477  0.95884041  0.10566905    -0.55430
C349        C  0.39206115  0.96765129  0.03562635     0.84620
O350        O  0.36538102  0.93777394  0.10696324    -0.57330
O351        O  0.40573575  0.95069930  0.15232091    -0.60620
In352      In  0.58042920  0.94759564  0.11483997     1.36870
C353        C  0.53758259  0.94180362  0.10599227     0.77070
O354        O  0.57021349  0.95333478  0.16934038    -0.61370
O355        O  0.59310821  0.97555020  0.14685037    -0.52290
C356        C  0.60789450  0.91707143  0.13869031     0.69740
O357        O  0.58727337  0.91456760  0.13835886    -0.47140
C358        C  0.58850786  0.96676545  0.05420969     0.74440
O359        O  0.55150430  0.92772229  0.09541229    -0.59000
O360        O  0.58902293  0.97707494  0.08262737    -0.49090
O361        O  0.54574453  0.95868276  0.11976127    -0.55430
C362        C  0.58229282  0.96993544  0.17352563     0.84620
O363        O  0.61454549  0.93383061  0.12261498    -0.57330
O364        O  0.58576958  0.94628155  0.05716662    -0.60620
In365      In  0.40373993  0.53292525  0.12045337     1.36870
C366        C  0.44685748  0.54029394  0.11205908     0.77070
O367        O  0.41593872  0.53004588  0.17458777    -0.61370
O368        O  0.39383133  0.50582687  0.15589005    -0.52290
C369        C  0.37351422  0.56224796  0.14070625     0.69740
O370        O  0.39032414  0.56760230  0.12303441    -0.47140
C371        C  0.39480423  0.51151488  0.06179830     0.74440
O372        O  0.43308853  0.55588915  0.11410924    -0.59000
O373        O  0.39956841  0.50218698  0.08976259    -0.49090
O374        O  0.43822465  0.52155069  0.11323660    -0.55430
C375        C  0.40532509  0.51271374  0.18085039     0.84620
O376        O  0.37128649  0.54185907  0.14492218    -0.57330
O377        O  0.39282890  0.53214376  0.06404250    -0.60620
In378      In  0.58585701  0.54151394  0.12022256     1.36870
C379        C  0.54216100  0.54376587  0.11362220     0.77070
O380        O  0.59204842  0.54212767  0.06191922    -0.61370
O381        O  0.59622712  0.51223129  0.08896338    -0.52290
C382        C  0.61403292  0.57251170  0.13977122     0.69740
O383        O  0.59414627  0.57671854  0.13277143    -0.47140
C384        C  0.58804793  0.52127387  0.18042667     0.74440
O385        O  0.55437028  0.55992605  0.10627755    -0.59000
O386        O  0.59408330  0.51224826  0.15236343    -0.49090
O387        O  0.55235749  0.52732472  0.12486970    -0.55430
C388        C  0.59583555  0.52172041  0.06002758     0.84620
O389        O  0.61997410  0.55313640  0.13242495    -0.57330
O390        O  0.58096939  0.54068972  0.17774597    -0.60620
In391      In  0.28543360  0.65323277  0.23015567     1.36870
C392        C  0.28799141  0.69689195  0.23365766     0.77070
O393        O  0.28386553  0.65552636  0.17260319    -0.61370
O394        O  0.25520601  0.64480897  0.19982266    -0.52290
C395        C  0.31703500  0.62471495  0.21244998     0.69740
O396        O  0.31950437  0.64522633  0.21034747    -0.47140
C397        C  0.26623181  0.64515646  0.29143530     0.74440
O398        O  0.30392216  0.68476023  0.24256938    -0.59000
O399        O  0.25714185  0.64140289  0.26271449    -0.49090
O400        O  0.27126943  0.68648938  0.22380155    -0.55430
C401        C  0.26409860  0.64936298  0.17100042     0.84620
O402        O  0.29935141  0.61886168  0.22723123    -0.57330
O403        O  0.28598752  0.65165149  0.28880549    -0.60620
In404      In  0.28049138  0.83505391  0.21707726     1.36870
C405        C  0.28392895  0.79182199  0.22604082     0.77070
O406        O  0.28143403  0.84324607  0.27434295    -0.61370
O407        O  0.25072004  0.84412452  0.24894700    -0.52290
C408        C  0.31230408  0.86169900  0.19491582     0.69740
O409        O  0.31535357  0.84142247  0.19944436    -0.47140
C410        C  0.25924687  0.83834085  0.15799227     0.74440
O411        O  0.29909018  0.80479627  0.23510180    -0.59000
O412        O  0.25204169  0.84682647  0.18580580    -0.49090
O413        O  0.26765527  0.80115030  0.21239848    -0.55430
C414        C  0.26081205  0.84592666  0.27723526     0.84620
O415        O  0.29384265  0.86858507  0.20582487    -0.57330
O416        O  0.27726670  0.82809632  0.16062126    -0.60620
C417        C  0.26746566  0.73186627  0.23162197    -0.09670
C418        C  0.28799495  0.72126520  0.23426836     0.06530
C419        C  0.30728806  0.73421516  0.23575677    -0.03430
C420        C  0.30561777  0.75722242  0.23402476    -0.07880
C421        C  0.28502233  0.76766984  0.23036992     0.05640
C422        C  0.26577111  0.75464237  0.22961785    -0.02910
Br423      Br  0.23633712  0.76643686  0.22662967    -0.02600
H424        H  0.25240165  0.72233854  0.23085153     0.09560
H425        H  0.32056240  0.76693893  0.23448381     0.07570
Br426      Br  0.33636056  0.72171683  0.23800433    -0.03030
C427        C  0.35003392  0.57314439  0.19097444    -0.09670
C428        C  0.35861477  0.57833469  0.15795614     0.06530
C429        C  0.35386041  0.59907245  0.14367289    -0.03430
C430        C  0.34107047  0.61423018  0.16262764    -0.07880
C431        C  0.33245794  0.60899888  0.19559105     0.05640
C432        C  0.33707987  0.58822009  0.20976431    -0.02910
Br433      Br  0.32726657  0.58009917  0.25542870    -0.02600
H434        H  0.35384708  0.55742067  0.20264317     0.09560
H435        H  0.33715251  0.62992623  0.15096085     0.07570
Br436      Br  0.36281289  0.60687324  0.09744481    -0.03030
C437        C  0.48362461  0.52376955  0.10236207    -0.09670
C438        C  0.47118097  0.54281702  0.10938611     0.06530
C439        C  0.48246461  0.56275241  0.11559992    -0.03430
C440        C  0.50566835  0.56303040  0.11543975    -0.07880
C441        C  0.51790943  0.54366976  0.10986305     0.05640
C442        C  0.50659476  0.52396236  0.10270716    -0.02910
Br443      Br  0.52130098  0.49658596  0.09245375    -0.02600
H444        H  0.47544531  0.50832307  0.09705680     0.09560
H445        H  0.51415555  0.57825292  0.12110881     0.07570
Br446      Br  0.46750423  0.58977726  0.12655391    -0.03030
C447        C  0.36278058  0.88321920  0.14582607    -0.09670
C448        C  0.35476853  0.90336795  0.13323915     0.06530
C449        C  0.33278169  0.90951348  0.14142579    -0.03430
C450        C  0.31980543  0.89599734  0.16253499    -0.07880
C451        C  0.32788584  0.87600350  0.17550364     0.05640
C452        C  0.34963179  0.86953028  0.16654241    -0.02910
Br453      Br  0.36283379  0.84263348  0.18218340    -0.02600
H454        H  0.37958987  0.87819361  0.14011783     0.09560
H455        H  0.30299145  0.90103258  0.16820321     0.07570
Br456      Br  0.31887917  0.93584072  0.12470320    -0.03030
C457        C  0.50411731  0.93232028  0.07181361    -0.09670
C458        C  0.51355785  0.93910077  0.10326157     0.06530
C459        C  0.49971753  0.94509202  0.13130524    -0.03430
C460        C  0.47693660  0.94521466  0.12714566    -0.07880
C461        C  0.46740799  0.93934866  0.09543096     0.05640
C462        C  0.48109966  0.93255461  0.06764069    -0.02910
Br463      Br  0.46937740  0.92583868  0.02279600    -0.02600
H464        H  0.51465572  0.92792514  0.04999884     0.09560
H465        H  0.46654320  0.95021181  0.14884521     0.07570
Br466      Br  0.51090498  0.95289538  0.17624340    -0.03030
C467        C  0.61403289  0.89344156  0.19017857    -0.09670
C468        C  0.62261343  0.90298767  0.15966877     0.06530
C469        C  0.64539417  0.90099757  0.15253168    -0.03430
C470        C  0.65907206  0.89005596  0.17595460    -0.07880
C471        C  0.65051533  0.88070094  0.20652473     0.05640
C472        C  0.62775431  0.88238842  0.21351647    -0.02910
Br473      Br  0.61494912  0.87135867  0.25567648    -0.02600
H474        H  0.59667935  0.89524798  0.19658670     0.09560
H475        H  0.67646511  0.88830372  0.16971934     0.07570
Br476      Br  0.65864603  0.91178372  0.11049236    -0.03030
C477        C  0.64458158  0.57874720  0.18084276    -0.09670
C478        C  0.62847644  0.58784853  0.15912041     0.06530
C479        C  0.62500400  0.61077498  0.16003643    -0.03430
C480        C  0.63732067  0.62393252  0.18269192    -0.07880
C481        C  0.65320490  0.61474713  0.20489871     0.05640
C482        C  0.65661233  0.59176915  0.20388431    -0.02910
Br483      Br  0.67657833  0.57670110  0.23418525    -0.02600
H484        H  0.64728715  0.56114129  0.18095797     0.09560
H485        H  0.63481323  0.64156351  0.18223818     0.07570
Br486      Br  0.60470504  0.62524208  0.12963828    -0.03030
C487        C  0.67792129  0.73679182  0.27433482    -0.09670
C488        C  0.69240013  0.72594605  0.25118230     0.06530
C489        C  0.70571964  0.73863223  0.22865420    -0.03430
C490        C  0.70513093  0.76145840  0.23078122    -0.07880
C491        C  0.69125290  0.77238961  0.25454742     0.05640
C492        C  0.67723492  0.75986387  0.27618118    -0.02910
Br493      Br  0.65792264  0.77313039  0.31001497    -0.02600
H494        H  0.66752453  0.72731351  0.29167321     0.09560
H495        H  0.71558818  0.77078410  0.21329403     0.07570
Br496      Br  0.72446697  0.72624457  0.19296531    -0.03030
C497        C  0.37760050  0.48895880  0.47382815    -0.09670
C498        C  0.39546919  0.47484463  0.46629540     0.06530
C499        C  0.41283167  0.47315265  0.49030988    -0.03430
C500        C  0.41180318  0.48495948  0.02140883    -0.07880
C501        C  0.39405341  0.49908580  0.02892873     0.05640
C502        C  0.37678070  0.50104045  0.00495979    -0.02910
Br503      Br  0.35139709  0.51902344  0.01446870    -0.02600
H504        H  0.36424884  0.49056695  0.45548996     0.09560
H505        H  0.42540961  0.48369024  0.03938675     0.07570
Br506      Br  0.43954264  0.45700029  0.48066634    -0.03030
C507        C  0.41427360  0.49935877  0.27598879    -0.09670
C508        C  0.40509657  0.47831173  0.27773694     0.06530
C509        C  0.39656394  0.46851340  0.24757325    -0.03430
C510        C  0.39687917  0.48009505  0.21645099    -0.07880
C511        C  0.40602264  0.50124395  0.21447327     0.05640
C512        C  0.41515223  0.51077610  0.24465320    -0.02910
Br513      Br  0.42896988  0.53915635  0.24567635    -0.02600
H514        H  0.42117280  0.50681031  0.29905485     0.09560
H515        H  0.38991605  0.47242481  0.19362408     0.07570
Br516      Br  0.38332560  0.43985865  0.24740443    -0.03030
C517        C  0.58955007  0.48757211  0.02657120    -0.09670
C518        C  0.59767798  0.50916965  0.02701562     0.06530
C519        C  0.60577317  0.51825799  0.49583279    -0.03430
C520        C  0.60515820  0.50589485  0.46500030    -0.07880
C521        C  0.59643599  0.48445360  0.46437405     0.05640
C522        C  0.58859999  0.47532682  0.49582517    -0.02910
Br523      Br  0.57447956  0.44714213  0.99869807    -0.02600
H524        H  0.58290656  0.48042780  0.05016427     0.09560
H525        H  0.61131894  0.51323596  0.44125703     0.07570
Br526      Br  0.61840619  0.54710292  0.49393653    -0.03030
C527        C  0.59896649  0.50613947  0.27361939    -0.09670
C528        C  0.58669850  0.48666285  0.27672775     0.06530
C529        C  0.57482867  0.47889682  0.24760090    -0.03430
C530        C  0.57608141  0.49023227  0.21626194    -0.07880
C531        C  0.58822369  0.50962072  0.21349625     0.05640
C532        C  0.59957435  0.51774897  0.24243089    -0.02910
Br533      Br  0.61675658  0.54409909  0.24027880    -0.02600
H534        H  0.60811050  0.51244409  0.29552345     0.09560
H535        H  0.56699611  0.48419603  0.19407850     0.07570
Br536      Br  0.55587072  0.45359078  0.24816408    -0.03030
C537        C  0.48413135  0.43154801  0.40200043    -0.09670
C538        C  0.47278710  0.44001429  0.37334366     0.06530
C539        C  0.48481856  0.44918863  0.34553952    -0.03430
C540        C  0.50767059  0.45079967  0.34746578    -0.07880
C541        C  0.51905983  0.44324311  0.37661490     0.05640
C542        C  0.50721369  0.43316513  0.40387183    -0.02910
Br543      Br  0.52140605  0.42340434  0.44536655    -0.02600
H544        H  0.47497453  0.42468174  0.42364460     0.09560
H545        H  0.51663277  0.45811742  0.32596177     0.07570
Br546      Br  0.47099654  0.45940262  0.30380103    -0.03030
C547        C  0.57750294  0.98291528  0.46097006    -0.09670
C548        C  0.58994700  0.00223691  0.45766278     0.06530
C549        C  0.60263023  0.00940408  0.48599474    -0.03430
C550        C  0.60246131  0.99733389  0.01700346    -0.07880
C551        C  0.58980199  0.97809096  0.02032590     0.05640
C552        C  0.57706658  0.97104640  0.99192227    -0.02910
Br553      Br  0.55675816  0.94688658  0.99475685    -0.02600
H554        H  0.56726318  0.97745154  0.43970335     0.09560
H555        H  0.61220478  0.00305210  0.03866292     0.07570
Br556      Br  0.62109203  0.03489410  0.48326149    -0.03030
C557        C  0.59771567  0.00909647  0.24658862    -0.09670
C558        C  0.58331733  0.00188815  0.27267024     0.06530
C559        C  0.56896250  0.98435945  0.26638999    -0.03430
C560        C  0.56899413  0.97430107  0.23389894    -0.07880
C561        C  0.58329337  0.98142740  0.20726173     0.05640
C562        C  0.59800563  0.99892544  0.21400761    -0.02910
Br563      Br  0.61910393  0.00972294  0.18076898    -0.02600
H564        H  0.60874243  0.02270927  0.25161682     0.09560
H565        H  0.55760248  0.96091121  0.22949639     0.07570
Br566      Br  0.54856344  0.97411425  0.30108810    -0.03030
C567        C  0.37256969  0.98840688  0.44809391    -0.09670
C568        C  0.38963146  0.00317662  0.43998220     0.06530
C569        C  0.40749064  0.00541235  0.46290939    -0.03430
C570        C  0.40763867  0.99372303  0.49390189    -0.07880
C571        C  0.39056019  0.97920488  0.50232391     0.05640
C572        C  0.37289762  0.97645162  0.47921036    -0.02910
Br573      Br  0.34845372  0.95766735  0.49003884    -0.02600
H574        H  0.35892069  0.98634486  0.43041582     0.09560
H575        H  0.42152187  0.99556519  0.51121764     0.07570
Br576      Br  0.43325441  0.02245321  0.45187218    -0.03030
C577        C  0.37991790  0.98975447  0.24350342    -0.09670
C578        C  0.39834306  0.00252589  0.25240228     0.06530
C579        C  0.41607720  0.00442766  0.22845598    -0.03430
C580        C  0.41490839  0.99385189  0.19634568    -0.07880
C581        C  0.39644916  0.98134749  0.18766201     0.05640
C582        C  0.37891476  0.97915649  0.21135202    -0.02910
Br583      Br  0.35363393  0.96149731  0.20096001    -0.02600
H584        H  0.36621071  0.98805149  0.26151610     0.09560
H585        H  0.42866029  0.99504659  0.17826569     0.07570
Br586      Br  0.44295668  0.01989219  0.23827051    -0.03030
C587        C  0.50023950  0.05806188  0.37272970    -0.09670
C588        C  0.51143253  0.03786747  0.37477281     0.06530
C589        C  0.49905322  0.01824052  0.37536717    -0.03430
C590        C  0.47626635  0.01902820  0.37128992    -0.07880
C591        C  0.46511448  0.03905490  0.36706066     0.05640
C592        C  0.47722884  0.05883916  0.36896007    -0.02910
Br593      Br  0.46382547  0.08729270  0.36434637    -0.02600
H594        H  0.50949249  0.07326449  0.37247664     0.09560
H595        H  0.46720951  0.00369771  0.37113455     0.07570
Br596      Br  0.51189297  0.98964543  0.38225061    -0.03030
C597        C  0.66455501  0.39078941  0.31534105    -0.09670
C598        C  0.65628665  0.38019511  0.28567477     0.06530
C599        C  0.63397162  0.38324170  0.27698286    -0.03430
C600        C  0.62036347  0.39644335  0.29807825    -0.07880
C601        C  0.62860992  0.40693728  0.32787453     0.05640
C602        C  0.65095582  0.40392777  0.33648863    -0.02910
Br603      Br  0.66343350  0.41606814  0.37794486    -0.02600
H604        H  0.68158066  0.38830414  0.32276564     0.09560
H605        H  0.60337290  0.39903777  0.29054530     0.07570
Br606      Br  0.62167325  0.37112983  0.23539401    -0.03030
C607        C  0.65725885  0.09098663  0.29901179    -0.09670
C608        C  0.64764722  0.10808702  0.27984066     0.06530
C609        C  0.62470265  0.11172131  0.28323124    -0.03430
C610        C  0.61200752  0.09828735  0.30517597    -0.07880
C611        C  0.62164766  0.08109072  0.32423752     0.05640
C612        C  0.64467765  0.07768901  0.32110005    -0.02910
Br613      Br  0.66046460  0.05573253  0.34675736    -0.02600
H614        H  0.67491584  0.08824231  0.29759883     0.09560
H615        H  0.59435055  0.10100461  0.30660602     0.07570
Br616      Br  0.60947967  0.13398495  0.25753706    -0.03030
C617        C  0.71029135  0.25420412  0.25045628    -0.09670
C618        C  0.69210897  0.26620325  0.23838234     0.06530
C619        C  0.67349646  0.25453549  0.22642260    -0.03430
C620        C  0.67370905  0.23140213  0.22624873    -0.07880
C621        C  0.69214124  0.21949886  0.23801559     0.05640
C622        C  0.71050182  0.23133446  0.25065657    -0.02910
Br623      Br  0.73653949  0.21802241  0.26991905    -0.02600
H624        H  0.72463138  0.26268542  0.26034627     0.09560
H625        H  0.65940996  0.22270237  0.21670479     0.07570
Br626      Br  0.64752320  0.26893149  0.20951105    -0.03030
C627        C  0.32918074  0.40028098  0.28799241    -0.09670
C628        C  0.33307656  0.37762477  0.28439954     0.06530
C629        C  0.35024371  0.36801453  0.30404036    -0.03430
C630        C  0.36322800  0.38116839  0.32573021    -0.07880
C631        C  0.35924121  0.40380951  0.32928829     0.05640
C632        C  0.34184258  0.41332067  0.31012381    -0.02910
Br633      Br  0.33479448  0.44416057  0.31115456    -0.02600
H634        H  0.31597975  0.40800275  0.27364695     0.09560
H635        H  0.37651344  0.37358248  0.34007501     0.07570
Br636      Br  0.35646036  0.33702911  0.30422477    -0.03030
C637        C  0.33444898  0.08203069  0.31783305    -0.09670
C638        C  0.35729366  0.08365054  0.31210421     0.06530
C639        C  0.36528407  0.10005452  0.28925641    -0.03430
C640        C  0.35044970  0.11420138  0.27281504    -0.07880
C641        C  0.32763141  0.11223233  0.27808462     0.05640
C642        C  0.31965915  0.09611215  0.30129881    -0.02910
Br643      Br  0.28897589  0.09323937  0.31358624    -0.02600
H644        H  0.32797409  0.06970308  0.33537697     0.09560
H645        H  0.35679154  0.12665810  0.25538353     0.07570
Br646      Br  0.39596171  0.10359974  0.27752343    -0.03030
C647        C  0.30188477  0.23621746  0.21243147    -0.09670
C648        C  0.29103642  0.22557056  0.23999717     0.06530
C649        C  0.28119168  0.23830452  0.26661438    -0.03430
C650        C  0.28125108  0.26110842  0.26433655    -0.07880
C651        C  0.29116385  0.27187880  0.23612461     0.05640
C652        C  0.30198620  0.25926430  0.21025032    -0.02910
Br653      Br  0.31557208  0.27235133  0.17024682    -0.02600
H654        H  0.30951708  0.22660120  0.19185159     0.09560
H655        H  0.27340062  0.27052714  0.28496935     0.07570
Br656      Br  0.26799633  0.22575100  0.30759033    -0.03030
C657        C  0.76592205  0.34987350  0.11823072    -0.09670
C658        C  0.75431008  0.34707109  0.08718431     0.06530
C659        C  0.73101696  0.34511154  0.08891367    -0.03430
C660        C  0.72014562  0.34530049  0.12111635    -0.07880
C661        C  0.73181450  0.34724942  0.15226833     0.05640
C662        C  0.75503846  0.35003084  0.15048638    -0.02910
Br663      Br  0.77342776  0.35329224  0.19059005    -0.02600
H664        H  0.78371910  0.35147896  0.11752766     0.09560
H665        H  0.70241537  0.34310116  0.12175300     0.07570
Br666      Br  0.71275342  0.34036853  0.04902400    -0.03030
C667        C  0.73267398  0.33904089  0.40080188    -0.09670
C668        C  0.75534087  0.33412868  0.40093686     0.06530
C669        C  0.76614709  0.32891481  0.36927161    -0.03430
C670        C  0.75417981  0.32876357  0.33853765    -0.07880
C671        C  0.73153809  0.33347044  0.33857212     0.05640
C672        C  0.72071891  0.33870756  0.37004482    -0.02910
Br673      Br  0.69010075  0.34691186  0.37264179    -0.02600
H674        H  0.72412577  0.34318813  0.42477417     0.09560
H675        H  0.76263364  0.32482333  0.31438811     0.07570
Br676      Br  0.79716452  0.32250041  0.36525286    -0.03030
C677        C  0.75979413  0.14548924  0.11198526    -0.09670
C678        C  0.74861411  0.14124035  0.08095806     0.06530
C679        C  0.72585398  0.13603899  0.08275313    -0.03430
C680        C  0.71473227  0.13614319  0.11490487    -0.07880
C681        C  0.72583895  0.14107081  0.14578550     0.05640
C682        C  0.74873660  0.14560874  0.14402395    -0.02910
Br683      Br  0.76576720  0.15433383  0.18361937    -0.02600
H684        H  0.77713705  0.14974664  0.11126361     0.09560
H685        H  0.69725879  0.13245847  0.11573030     0.07570
Br686      Br  0.70894785  0.12820892  0.04264419    -0.03030
C687        C  0.72643639  0.14560551  0.39607359    -0.09670
C688        C  0.74947507  0.14784247  0.39575564     0.06530
C689        C  0.76084651  0.14877235  0.36365879    -0.03430
C690        C  0.74901026  0.14827296  0.33276311    -0.07880
C691        C  0.72591293  0.14705409  0.33312489     0.05640
C692        C  0.71458367  0.14530698  0.36513369    -0.02910
Br693      Br  0.68314510  0.14161539  0.36835235    -0.02600
H694        H  0.71753922  0.14455869  0.42052990     0.09560
H695        H  0.75790926  0.14932748  0.30830281     0.07570
Br696      Br  0.79248196  0.14991553  0.35997667    -0.03030
C697        C  0.78454817  0.23308052  0.46853868    -0.09670
C698        C  0.79109627  0.22100744  0.49762601     0.06530
C699        C  0.79955576  0.23230869  0.02668634    -0.03430
C700        C  0.80077134  0.25539415  0.02636045    -0.07880
C701        C  0.79337954  0.26735100  0.49757647     0.05640
C702        C  0.78564602  0.25592359  0.46824081    -0.02910
Br703      Br  0.77677512  0.27056011  0.42644890    -0.02600
H704        H  0.77839711  0.22467288  0.44574909     0.09560
H705        H  0.80650160  0.26403544  0.04918655     0.07570
Br706      Br  0.80760615  0.21734527  0.06846018    -0.03030
C707        C  0.82164371  0.39150176  0.42397531    -0.09670
C708        C  0.83144275  0.37868396  0.45001533     0.06530
C709        C  0.85461587  0.37875489  0.45283053    -0.03430
C710        C  0.86739905  0.39146837  0.42995095    -0.07880
C711        C  0.85758771  0.40441281  0.40398769     0.05640
C712        C  0.83437963  0.40417468  0.40107062    -0.02910
Br713      Br  0.81900656  0.41995101  0.36555760    -0.02600
H714        H  0.80390020  0.39125092  0.42077827     0.09560
H715        H  0.88512345  0.39177715  0.43330288     0.07570
Br716      Br  0.86960908  0.36308334  0.48880629    -0.03030
C717        C  0.00176986  0.44311602  0.32383609    -0.09670
C718        C  0.01300517  0.44277412  0.35552888     0.06530
C719        C  0.00087363  0.44279633  0.38683467    -0.03430
C720        C  0.97784000  0.44354775  0.38619482    -0.07880
C721        C  0.96655653  0.44425748  0.35462846     0.05640
C722        C  0.97861527  0.44393657  0.32321206    -0.02910
Br723      Br  0.96427371  0.44698491  0.27930858    -0.02600
H724        H  0.01101409  0.44380160  0.29966718     0.09560
H725        H  0.96868185  0.44393084  0.41048833     0.07570
Br726      Br  0.01513768  0.44229168  0.43112385    -0.03030
C727        C  0.82502140  0.09093278  0.44155735    -0.09670
C728        C  0.83126014  0.11262196  0.44914693     0.06530
C729        C  0.85194520  0.12010950  0.43657912    -0.03430
C730        C  0.86561727  0.10599745  0.41699608    -0.07880
C731        C  0.85922156  0.08436592  0.40916217     0.05640
C732        C  0.83858110  0.07688152  0.42194782    -0.02910
Br733      Br  0.82772717  0.04751034  0.41520430    -0.02600
H734        H  0.80925031  0.08478718  0.45065758     0.09560
H735        H  0.88146257  0.11200294  0.40798279     0.07570
Br736      Br  0.86290834  0.14920046  0.44508096    -0.03030
C737        C  0.00739430  0.02298097  0.36072695    -0.09670
C738        C  0.01874926  0.04273227  0.35535108     0.06530
C739        C  0.00641538  0.06196250  0.34839262    -0.03430
C740        C  0.98320628  0.06118142  0.34891606    -0.07880
C741        C  0.97194844  0.04148143  0.35600141     0.05640
C742        C  0.98448124  0.02207779  0.36099912    -0.02910
Br743      Br  0.97218440  0.99331787  0.36847885    -0.02600
H744        H  0.01642353  0.00788264  0.36529643     0.09560
H745        H  0.97395500  0.07616593  0.34458580     0.07570
Br746      Br  0.01994863  0.08980339  0.33899616    -0.03030
C747        C  0.24822890  0.35977253  0.08660443    -0.09670
C748        C  0.22654907  0.35149742  0.08569212     0.06530
C749        C  0.21696097  0.34391176  0.11699415    -0.03430
C750        C  0.22924475  0.34398142  0.14758917    -0.07880
C751        C  0.25121439  0.35137557  0.14825401     0.05640
C752        C  0.26050048  0.35990342  0.11738554    -0.02910
Br753      Br  0.28954749  0.37235904  0.11542955    -0.02600
H754        H  0.25585570  0.36594608  0.06305896     0.09560
H755        H  0.22167907  0.33740048  0.17090566     0.07570
Br756      Br  0.18782593  0.33165316  0.11999617    -0.03030
C757        C  0.21909453  0.34987705  0.36911076    -0.09670
C758        C  0.23150902  0.34689835  0.39933193     0.06530
C759        C  0.25455242  0.34434137  0.39673253    -0.03430
C760        C  0.26466166  0.34413093  0.36402602    -0.07880
C761        C  0.25218564  0.34664617  0.33371665     0.05640
C762        C  0.22920619  0.34989722  0.33643608    -0.02910
Br763      Br  0.21044266  0.35246221  0.29671367    -0.02600
H764        H  0.20132901  0.35175129  0.37088719     0.09560
H765        H  0.28233831  0.34155839  0.36223456     0.07570
Br766      Br  0.27275872  0.33901804  0.43638593    -0.03030
C767        C  0.12974429  0.41519551  0.43871475    -0.09670
C768        C  0.12392915  0.40860739  0.40498441     0.06530
C769        C  0.13090887  0.38792578  0.39270114    -0.03430
C770        C  0.14342606  0.37420310  0.41416601    -0.07880
C771        C  0.14934889  0.38083492  0.44788558     0.05640
C772        C  0.14227080  0.40151803  0.46015883    -0.02910
Br773      Br  0.14811070  0.41128517  0.00657157    -0.02600
H774        H  0.12410944  0.43092928  0.44872765     0.09560
H775        H  0.14922937  0.35857747  0.40398691     0.07570
Br776      Br  0.12538161  0.37859922  0.34598511    -0.03030
C777        C  0.26164049  0.14441620  0.12073687    -0.09670
C778        C  0.24984212  0.14781122  0.15179914     0.06530
C779        C  0.22660946  0.15030206  0.15033071    -0.03430
C780        C  0.21600013  0.15018824  0.11824122    -0.07880
C781        C  0.22790965  0.14777350  0.08704989     0.05640
C782        C  0.25101523  0.14429415  0.08863200    -0.02910
Br783      Br  0.26946855  0.13948018  0.04845904    -0.02600
H784        H  0.27938049  0.14221538  0.12129871     0.09560
H785        H  0.19832231  0.15283509  0.11770953     0.07570
Br786      Br  0.20811620  0.15547317  0.19038994    -0.03030
C787        C  0.25108741  0.15205857  0.40057169    -0.09670
C788        C  0.22810607  0.15497467  0.40098255     0.06530
C789        C  0.21676286  0.15700676  0.36929154    -0.03430
C790        C  0.22859276  0.15670750  0.33814654    -0.07880
C791        C  0.25162262  0.15460787  0.33780998     0.05640
C792        C  0.26293140  0.15195218  0.36935281    -0.02910
Br793      Br  0.29426348  0.14727606  0.37165675    -0.02600
H794        H  0.25996818  0.15024294  0.42469206     0.09560
H795        H  0.21972690  0.15854660  0.31401416     0.07570
Br796      Br  0.18519499  0.15956724  0.36615641    -0.03030
C797        C  0.15988182  0.09450771  0.44520419    -0.09670
C798        C  0.15109620  0.11517356  0.45428474     0.06530
C799        C  0.13005729  0.12095803  0.44148757    -0.03430
C800        C  0.11853502  0.10623961  0.42020996    -0.07880
C801        C  0.12743623  0.08562445  0.41093022     0.05640
C802        C  0.14846451  0.07985857  0.42386534    -0.02910
Br803      Br  0.16284697  0.05223510  0.41446015    -0.02600
H804        H  0.17605987  0.08972484  0.45429374     0.09560
H805        H  0.10232516  0.11093010  0.41115407     0.07570
Br806      Br  0.11575420  0.14842355  0.45205367    -0.03030
C807        C  0.18345199  0.23860812  0.02899081    -0.09670
C808        C  0.18811332  0.22690154  0.49832957     0.06530
C809        C  0.19255921  0.23851273  0.46747985    -0.03430
C810        C  0.19322652  0.26139522  0.46796434    -0.07880
C811        C  0.18933357  0.27317517  0.49872956     0.05640
C812        C  0.18417249  0.26167076  0.02943415    -0.02910
Br813      Br  0.18040620  0.27646269  0.07309004    -0.02600
H814        H  0.18034761  0.22980700  0.05292757     0.09560
H815        H  0.19693354  0.27007357  0.44409632     0.07570
Br816      Br  0.19735710  0.22398548  0.42364022    -0.03030
C817        C  0.24702590  0.85089805  0.37389763    -0.09670
C818        C  0.22378576  0.85150179  0.37352423     0.06530
C819        C  0.21315420  0.85248842  0.34109902    -0.03430
C820        C  0.22568641  0.85163476  0.31033161    -0.07880
C821        C  0.24887617  0.84973793  0.31074481     0.05640
C822        C  0.25955384  0.84993925  0.34320170    -0.02910
Br823      Br  0.29102705  0.84800010  0.34823345    -0.02600
H824        H  0.25565336  0.85030192  0.39838772     0.09560
H825        H  0.21706350  0.85184633  0.28581871     0.07570
Br826      Br  0.18169976  0.85478950  0.33654794    -0.03030
C827        C  0.21448080  0.84053445  0.09057220    -0.09670
C828        C  0.22706924  0.84181819  0.05989767     0.06530
C829        C  0.25026932  0.84265182  0.06181208    -0.03430
C830        C  0.26039791  0.84169006  0.09418520    -0.07880
C831        C  0.24776760  0.84021785  0.12480022     0.05640
C832        C  0.22458285  0.83983159  0.12289067    -0.02910
Br833      Br  0.20583629  0.83660060  0.16300864    -0.02600
H834        H  0.19663658  0.83981998  0.08940830     0.09560
H835        H  0.27825177  0.84196331  0.09544466     0.07570
Br836      Br  0.26907350  0.84354317  0.02143764    -0.03030
C837        C  0.23070644  0.64528398  0.32426163    -0.09670
C838        C  0.25386608  0.64354505  0.32488858     0.06530
C839        C  0.26432525  0.64188241  0.35734099    -0.03430
C840        C  0.25170883  0.64263067  0.38802108    -0.07880
C841        C  0.22858413  0.64525211  0.38749983     0.05640
C842        C  0.21808632  0.64634085  0.35490592    -0.02910
Br843      Br  0.18683727  0.65043073  0.34969899    -0.02600
H844        H  0.22230904  0.64671719  0.29965369     0.09560
H845        H  0.26021864  0.64158912  0.41257405     0.07570
Br846      Br  0.29566622  0.63827636  0.36180694    -0.03030
C847        C  0.25062601  0.64393737  0.07585529    -0.09670
C848        C  0.22926620  0.65295842  0.07519983     0.06530
C849        C  0.21905443  0.65946028  0.10680208    -0.03430
C850        C  0.23045054  0.65719447  0.13790107    -0.07880
C851        C  0.25202477  0.64892799  0.13823058     0.05640
C852        C  0.26208874  0.64202399  0.10696885    -0.02910
Br853      Br  0.29105534  0.62912310  0.10537568    -0.02600
H854        H  0.25861128  0.63859215  0.05199823     0.09560
H855        H  0.22264742  0.66258411  0.16189863     0.07570
Br856      Br  0.18962934  0.67126770  0.11008674    -0.03030
C857        C  0.17607784  0.73514655  0.44890232    -0.09670
C858        C  0.19056327  0.72516791  0.47252790     0.06530
C859        C  0.20379551  0.73870538  0.49367398    -0.03430
C860        C  0.20311424  0.76142251  0.48980763    -0.07880
C861        C  0.18919031  0.77148912  0.46565174     0.05640
C862        C  0.17527116  0.75815326  0.44534097    -0.02910
Br863      Br  0.15589803  0.77021154  0.41117406    -0.02600
H864        H  0.16574944  0.72502511  0.43257247     0.09560
H865        H  0.21347539  0.77135482  0.00640150     0.07570
Br866      Br  0.22246639  0.72768533  0.02992372    -0.03030
C867        C  0.88863441  0.51682885  0.49239410    -0.09670
C868        C  0.89940963  0.50664401  0.02015173     0.06530
C869        C  0.90905012  0.48582578  0.01532408    -0.03430
C870        C  0.90809581  0.47569971  0.48288187    -0.07880
C871        C  0.89741666  0.48580669  0.45480658     0.05640
C872        C  0.88725194  0.50651490  0.45998795    -0.02910
Br873      Br  0.87065495  0.52143776  0.42489031    -0.02600
H874        H  0.88092670  0.53276985  0.49612335     0.09560
H875        H  0.91603635  0.45984486  0.47962597     0.07570
Br876      Br  0.92494935  0.47100923  0.05129493    -0.03030
C877        C  0.91017390  0.48661700  0.25033209    -0.09670
C878        C  0.89017415  0.48315857  0.26806546     0.06530
C879        C  0.87067349  0.49259661  0.25490205    -0.03430
C880        C  0.87145681  0.50503668  0.22417675    -0.07880
C881        C  0.89164618  0.50889964  0.20709134     0.05640
C882        C  0.91108776  0.49955821  0.22045662    -0.02910
Br883      Br  0.93928735  0.50335804  0.19807844    -0.02600
H884        H  0.92530853  0.47963592  0.26025928     0.09560
H885        H  0.85636934  0.51188595  0.21385480     0.07570
Br886      Br  0.84262270  0.48816306  0.27713851    -0.03030
C887        C  0.09009013  0.51762112  0.48963924    -0.09670
C888        C  0.08477955  0.50591503  0.01980346     0.06530
C889        C  0.07837486  0.48375648  0.01726132    -0.03430
C890        C  0.07729109  0.47376945  0.48467006    -0.07880
C891        C  0.08265934  0.48544954  0.45436974     0.04680
C892        C  0.08920733  0.50764031  0.45707683    -0.02910
Br893      Br  0.09620673  0.52577632  0.41777213    -0.02600
H894        H  0.09491734  0.53472534  0.49140025     0.09560
H895        H  0.07221082  0.45674055  0.48306261     0.07570
Br896      Br  0.06948464  0.46673442  0.05684445    -0.03030
C897        C  0.10573366  0.47880285  0.24291106    -0.09670
C898        C  0.09100009  0.48565344  0.26913421     0.06530
C899        C  0.07805173  0.50465886  0.26373888    -0.03430
C900        C  0.08024850  0.51655354  0.23300950    -0.07880
C901        C  0.09478324  0.50973779  0.20652864     0.05640
C902        C  0.10775836  0.49065657  0.21179290    -0.02910
Br903      Br  0.12892427  0.48024789  0.17815169    -0.02600
H904        H  0.11581841  0.46429294  0.24673211     0.09560
H905        H  0.06966298  0.53070502  0.22918450     0.07570
Br906      Br  0.05530254  0.51409456  0.29564761    -0.03030
C907        C  0.12360814  0.60812633  0.07138886    -0.09670
C908        C  0.12734911  0.58537980  0.06911745     0.06530
C909        C  0.14328313  0.57756219  0.04496460    -0.03430
C910        C  0.15511939  0.59237739  0.02424420    -0.07880
C911        C  0.15152753  0.61516370  0.02658200     0.05640
C912        C  0.13558866  0.62299388  0.05081845    -0.02910
Br913      Br  0.12995742  0.65368272  0.05886841    -0.02600
H914        H  0.11136107  0.61443455  0.08952943     0.09560
H915        H  0.16727064  0.58594234  0.00605801     0.07570
Br916      Br  0.14884024  0.54682843  0.03696011    -0.03030
C917        C  0.98070810  0.55842915  0.13747477    -0.09670
C918        C  0.96974694  0.54539483  0.11287980     0.06530
C919        C  0.98237191  0.53299080  0.08886047    -0.03430
C920        C  0.00533625  0.53307072  0.09066698    -0.07880
C921        C  0.01638538  0.54553998  0.11577537     0.05640
C922        C  0.00387600  0.55854540  0.13917592    -0.02910
Br923      Br  0.01730914  0.57534502  0.17548974    -0.02600
H924        H  0.97122670  0.56795424  0.15618589     0.09560
H925        H  0.01466521  0.52335779  0.07197677     0.07570
Br926      Br  0.96946827  0.51640684  0.05168074    -0.03030
C927        C  0.72958513  0.85419699  0.40767675    -0.09670
C928        C  0.75269312  0.85153645  0.40678536     0.06530
C929        C  0.76340354  0.85043164  0.37408375    -0.03430
C930        C  0.75095375  0.85102747  0.34368037    -0.07880
C931        C  0.72776244  0.85250460  0.34458951     0.05640
C932        C  0.71711804  0.85464570  0.37719235    -0.02910
Br933      Br  0.68572054  0.85784844  0.38245071    -0.02600
H934        H  0.72096262  0.85532592  0.43237274     0.09560
H935        H  0.75958015  0.84950842  0.31903432     0.07570
Br936      Br  0.79478639  0.84715262  0.36829459    -0.03030
C937        C  0.76231938  0.84607352  0.12226918    -0.09670
C938        C  0.74985421  0.84400856  0.09192373     0.06530
C939        C  0.72673605  0.84211558  0.09442955    -0.03430
C940        C  0.71659701  0.84188507  0.12711374    -0.07880
C941        C  0.72910247  0.84369567  0.15751741     0.05640
C942        C  0.75220058  0.84604388  0.15491106    -0.02910
Br943      Br  0.77113509  0.84765989  0.19458435    -0.02600
H944        H  0.78012442  0.84743455  0.12060590     0.09560
H945        H  0.69883748  0.84006792  0.12876732     0.07570
Br946      Br  0.70831381  0.83802900  0.05462648    -0.03030
C947        C  0.76356840  0.64303119  0.37353888    -0.09670
C948        C  0.75211083  0.64736619  0.40463490     0.06530
C949        C  0.72895272  0.65057398  0.40329176    -0.03430
C950        C  0.71808357  0.65005586  0.37133759    -0.07880
C951        C  0.72965485  0.64650978  0.34006710     0.05640
C952        C  0.75270769  0.64248780  0.34157858    -0.02910
Br953      Br  0.77088745  0.63655959  0.30144177    -0.02600
H954        H  0.78124499  0.64035076  0.37395743     0.09560
H955        H  0.70049200  0.65323899  0.37092670     0.07570
Br956      Br  0.71103187  0.65739754  0.44334781    -0.03030
C957        C  0.76516013  0.65530406  0.11923446    -0.09670
C958        C  0.75294891  0.65221143  0.08879793     0.06530
C959        C  0.72988789  0.64945048  0.09115896    -0.03430
C960        C  0.71951458  0.65022413  0.12364556    -0.07880
C961        C  0.73175159  0.65349343  0.15397041     0.05640
C962        C  0.75480936  0.65591464  0.15167376    -0.02910
Br963      Br  0.77284056  0.66197839  0.19132942    -0.02600
H964        H  0.78286405  0.65763248  0.11776903     0.09560
H965        H  0.70174560  0.64844874  0.12520698     0.07570
Br966      Br  0.71139570  0.64623719  0.05123122    -0.03030
C967        C  0.84060055  0.62164866  0.06813657    -0.09670
C968        C  0.83422739  0.61610766  0.03414072     0.06530
C969        C  0.84083147  0.59568393  0.02019644    -0.03430
C970        C  0.85311260  0.58108090  0.04043698    -0.07880
C971        C  0.85921079  0.58651654  0.07452529     0.05640
C972        C  0.85295107  0.60702728  0.08833036    -0.02910
Br973      Br  0.85929897  0.61490357  0.13542008    -0.02600
H974        H  0.83523855  0.63708912  0.07954649     0.09560
H975        H  0.85830163  0.56551526  0.02924421     0.07570
Br976      Br  0.83464366  0.58749015  0.47313714    -0.03030
C977        C  0.79906419  0.73664915  0.46157739    -0.09670
C978        C  0.79277373  0.72512053  0.49157886     0.06530
C979        C  0.78690619  0.73695015  0.02182829    -0.03430
C980        C  0.78633633  0.75980722  0.02121923    -0.07880
C981        C  0.79175928  0.77141978  0.49101879     0.05640
C982        C  0.79849236  0.75973645  0.46104668    -0.02910
Br983      Br  0.80488166  0.77433849  0.41810095    -0.02600
H984        H  0.80344394  0.72770577  0.43813651     0.09560
H985        H  0.78152912  0.76861056  0.04461994     0.07570
Br986      Br  0.78013154  0.72289463  0.06526109    -0.03030
C987        C  0.90351391  0.97337859  0.24303647    -0.09670
C988        C  0.89061522  0.98144148  0.21584229     0.06530
C989        C  0.87861358  0.00116585  0.22087771    -0.03430
C990        C  0.88022563  0.01270232  0.25233343    -0.07880
C991        C  0.89354479  0.00483914  0.27919295     0.05640
C992        C  0.90526947  0.98494691  0.27428873    -0.02910
Br993      Br  0.92597739  0.97395266  0.30753774    -0.02600
H994        H  0.91330579  0.95861154  0.23929153     0.09560
H995        H  0.87103062  0.02785547  0.25583075     0.07570
Br996      Br  0.85931488  0.01281830  0.18619901    -0.03030
C997        C  0.88337689  0.00391466  0.48091274    -0.09670
C998        C  0.90354391  0.00874461  0.46465305     0.06530
C999        C  0.92349235  0.00305287  0.48088002    -0.03430
C1000       C  0.92298204  0.99246912  0.01287855    -0.07880
C1001       C  0.90285218  0.98794595  0.02944875     0.05640
C1002       C  0.88287356  0.99378711  0.01336156    -0.02910
Br1003     Br  0.85451034  0.98713062  0.03326928    -0.02600
H1004       H  0.86799222  0.00819847  0.46845771     0.09560
H1005       H  0.93838219  0.98778919  0.02493117     0.07570
Br1006     Br  0.95184165  0.00813254  0.45979222    -0.03030
C1007       C  0.85008083  0.91506786  0.04677880    -0.09670
C1008       C  0.85835132  0.90841136  0.07910767     0.06530
C1009       C  0.85320031  0.88727459  0.09142832    -0.03430
C1010       C  0.84013634  0.87323571  0.07131418    -0.07880
C1011       C  0.83178235  0.87997693  0.03905865     0.05640
C1012       C  0.83695951  0.90110996  0.02678539    -0.02910
Br1013     Br  0.82761133  0.91134685  0.48218547    -0.02600
H1014       H  0.85420353  0.93113782  0.03661408     0.09560
H1015       H  0.83581174  0.85723672  0.08154719     0.07570
Br1016     Br  0.86194067  0.87748091  0.13656075    -0.03030
C1017       C  0.08139956  0.00692713  0.02642816    -0.09670
C1018       C  0.08538905  0.98425833  0.02690538     0.06530
C1019       C  0.09089599  0.97319459  0.99583980    -0.03430
C1020       C  0.09169117  0.98481521  0.46473274    -0.07880
C1021       C  0.08691023  0.00737950  0.46391407     0.05640
C1022       C  0.08197094  0.01855899  0.99527082    -0.02910
Br1023     Br  0.07674034  0.04969213  0.99788699    -0.02600
H1024       H  0.07753644  0.01558264  0.05037186     0.09560
H1025       H  0.09580101  0.97606955  0.44098415     0.07570
Br1026     Br  0.09871152  0.94257261  0.49451578    -0.03030
C1027       C  0.10325469  0.97138246  0.24248646    -0.09670
C1028       C  0.09649345  0.98212974  0.21217551     0.06530
C1029       C  0.09100717  0.00474557  0.21428639    -0.03430
C1030       C  0.09233744  0.01594881  0.24594911    -0.07880
C1031       C  0.09860706  0.00520163  0.27647433     0.05640
C1032       C  0.10443152  0.98263268  0.27438112    -0.02910
Br1033     Br  0.11425038  0.96605633  0.31370749    -0.02600
H1034       H  0.10754273  0.95409404  0.24143097     0.09560
H1035       H  0.08738657  0.03306509  0.24690541     0.07570
Br1036     Br  0.07927057  0.02115272  0.17602367    -0.03030
C1037       C  0.11978063  0.88534265  0.06285065    -0.09670
C1038       C  0.12639721  0.90712065  0.06911409     0.06530
C1039       C  0.14436867  0.91551438  0.04953053    -0.03430
C1040       C  0.15509073  0.90224699  0.02476902    -0.07880
C1041       C  0.14857193  0.88043995  0.01857334     0.05640
C1042       C  0.13062870  0.87200730  0.03819191    -0.02910
Br1043     Br  0.12015116  0.84237135  0.03376121    -0.02600
H1044       H  0.10591292  0.87859232  0.07713621     0.09560
H1045       H  0.16890243  0.90908541  0.01045719     0.07570
Br1046     Br  0.15499063  0.94513453  0.05376654    -0.03030
C1047       C  0.00532109  0.92902913  0.10808824    -0.09670
C1048       C  0.01655740  0.94297984  0.13093573     0.06530
C1049       C  0.00439672  0.95669114  0.15355314    -0.03430
C1050       C  0.98135841  0.95681224  0.15234981    -0.07880
C1051       C  0.96999358  0.94352441  0.12861560     0.05640
C1052       C  0.98219637  0.92937877  0.10643261    -0.02910
Br1053     Br  0.96857271  0.91225666  0.07060575    -0.02600
H1054       H  0.01459457  0.91880944  0.09002769     0.09560
H1055       H  0.97228075  0.96768172  0.16968212     0.07570
Br1056     Br  0.01856013  0.97548220  0.18669066    -0.03030
In1057     In  0.08389283  0.95048056  0.61877476     1.36870
C1058       C  0.04066635  0.94519496  0.62774607     0.77070
O1059       O  0.08983445  0.94932565  0.67731028    -0.61370
O1060       O  0.09533688  0.97891304  0.65009722    -0.52290
C1061       C  0.11257354  0.92130683  0.59243304     0.69740
O1062       O  0.09337779  0.91600632  0.60216569    -0.47140
C1063       C  0.08410523  0.97259755  0.56002017     0.74440
O1064       O  0.05393159  0.92916881  0.62880978    -0.59000
O1065       O  0.09163141  0.98051157  0.58774769    -0.49090
O1066       O  0.04956396  0.96357220  0.62269386    -0.55430
C1067       C  0.09415074  0.96964663  0.67911173     0.84620
O1068       O  0.11803198  0.94038011  0.60169397    -0.57330
O1069       O  0.07552682  0.95387064  0.56284560    -0.60620
In1070     In  0.90253614  0.95292368  0.61997142     1.36870
C1071       C  0.94578595  0.94623871  0.62608584     0.77070
O1072       O  0.91618540  0.96018957  0.56738466    -0.61370
O1073       O  0.89050275  0.98067062  0.58746338    -0.52290
C1074       C  0.87296272  0.92377042  0.59783711     0.69740
O1075       O  0.88975731  0.91797025  0.61476136    -0.47140
C1076       C  0.89256680  0.97058947  0.68153466     0.74440
O1077       O  0.93272214  0.93103270  0.61754370    -0.59000
O1078       O  0.89236114  0.98124589  0.65365155    -0.49090
O1079       O  0.93654332  0.96446293  0.63211002    -0.55430
C1080       C  0.90320646  0.97606544  0.56237131     0.84620
O1081       O  0.87045433  0.94420184  0.59558896    -0.57330
O1082       O  0.89645204  0.95030619  0.67775205    -0.60620
In1083     In  0.78641784  0.65778408  0.99610995     1.36870
C1084       C  0.79064841  0.70102699  0.99087750     0.77070
O1085       O  0.78548038  0.65288994  0.93788860    -0.61370
O1086       O  0.75589710  0.64936849  0.96692626    -0.52290
C1087       C  0.81887502  0.63097807  0.51584721     0.69740
O1088       O  0.81990979  0.65154536  0.51874076    -0.47140
C1089       C  0.76469723  0.65362057  0.55536077     0.74440
O1090       O  0.80466664  0.68812872  0.97721810    -0.59000
O1091       O  0.75854404  0.64406042  0.52798219    -0.49090
O1092       O  0.77443219  0.69170502  0.00498986    -0.55430
C1093       C  0.76483693  0.64971966  0.93732775     0.84620
O1094       O  0.80247066  0.62423894  0.99897272    -0.57330
O1095       O  0.78196332  0.66490348  0.55211619    -0.60620
In1096     In  0.78414521  0.83862923  0.99993550     1.36870
C1097       C  0.78909743  0.79547970  0.99206631     0.77070
O1098       O  0.78038249  0.83325210  0.55649615    -0.61370
O1099       O  0.75440070  0.84978227  0.53040593    -0.52290
C1100       C  0.81615896  0.86538208  0.52088202     0.69740
O1101       O  0.81780368  0.84476959  0.52181835    -0.47140
C1102       C  0.76451005  0.84834198  0.94014449     0.74440
O1103       O  0.80242321  0.80888853  0.97842781    -0.59000
O1104       O  0.75444256  0.84784905  0.96891395    -0.49090
O1105       O  0.77333563  0.80424428  0.00848530    -0.55430
C1106       C  0.76173342  0.84237608  0.55864550     0.84620
O1107       O  0.79913055  0.87231966  0.50578080    -0.57330
O1108       O  0.78502805  0.84496068  0.94240916    -0.60620
In1109     In  0.08450949  0.53984863  0.61181011     1.36870
C1110       C  0.04074687  0.54390600  0.61643527     0.77070
O1111       O  0.07939913  0.53769786  0.55501861    -0.61370
O1112       O  0.09045853  0.50902297  0.58131645    -0.52290
C1113       C  0.11298089  0.57015698  0.58922447     0.69740
O1114       O  0.09330374  0.57477947  0.59747150    -0.47140
C1115       C  0.09372205  0.52147650  0.67285255     0.74440
O1116       O  0.05349841  0.55918502  0.62576721    -0.59000
O1117       O  0.09847932  0.51253451  0.64424707    -0.49090
O1118       O  0.05050459  0.52680998  0.60602516    -0.55430
C1119       C  0.08494040  0.51774834  0.55298276     0.84620
O1120       O  0.11874914  0.55095863  0.59735807    -0.57330
O1121       O  0.08608399  0.54072484  0.67014617    -0.60620
In1122     In  0.90159414  0.53986179  0.61294588     1.36870
C1123       C  0.94538487  0.54389515  0.61355412     0.77070
O1124       O  0.90383665  0.53881652  0.67132569    -0.61370
O1125       O  0.88405249  0.51488693  0.64673775    -0.52290
C1126       C  0.87301794  0.57072265  0.59367985     0.69740
O1127       O  0.89163433  0.57551616  0.60604061    -0.47140
C1128       C  0.90055055  0.51823523  0.55351483     0.74440
O1129       O  0.93274639  0.55968914  0.62175640    -0.59000
O1130       O  0.89777192  0.50881006  0.58240047    -0.49090
O1131       O  0.93554050  0.52635977  0.60604454    -0.55430
C1132       C  0.89259823  0.52155713  0.67448607     0.84620
O1133       O  0.86811569  0.55068457  0.59554125    -0.57330
O1134       O  0.90423505  0.53858605  0.55524768    -0.60620
In1135     In  0.19691868  0.65766489  0.98200979     1.36870
C1136       C  0.19235906  0.70088966  0.97443274     0.77070
O1137       O  0.20175961  0.66748393  0.53697421    -0.61370
O1138       O  0.22424865  0.64452754  0.51475637    -0.52290
C1139       C  0.16618847  0.63008433  0.50624143     0.69740
O1140       O  0.16262350  0.65033801  0.50226616    -0.47140
C1141       C  0.21661205  0.64825952  0.92120478     0.74440
O1142       O  0.17702537  0.68779164  0.96636518    -0.59000
O1143       O  0.22672705  0.64968706  0.94954518    -0.49090
O1144       O  0.20968330  0.69160214  0.98468157    -0.55430
C1145       C  0.21812182  0.65506321  0.54148195     0.84620
O1146       O  0.18424853  0.62364213  0.49317413    -0.57330
O1147       O  0.19592597  0.65042017  0.92432630    -0.60620
In1148     In  0.19308315  0.83931425  0.96843747     1.36870
C1149       C  0.21536615  0.84104500  0.52674326     0.77070
O1150       O  0.18098751  0.87306112  0.98348116    -0.61370
O1151       O  0.15858587  0.84674537  0.98787461    -0.52290
C1152       C  0.21174312  0.84910224  0.90722299     0.69740
O1153       O  0.22175824  0.84960160  0.93569008    -0.47140
C1154       C  0.19014333  0.79576301  0.96348549     0.74440
O1155       O  0.22219695  0.85023600  0.99938069    -0.59000
O1156       O  0.17431575  0.80809440  0.95465546    -0.49090
O1157       O  0.19733180  0.83097811  0.52384239    -0.55430
C1158       C  0.16266459  0.86651663  0.99522152     0.84620
O1159       O  0.19135382  0.84504582  0.91026874    -0.57330
O1160       O  0.20720190  0.80590237  0.97266052    -0.60620
In1161     In  0.19567779  0.15960975  0.99444942     1.36870
C1162       C  0.19056768  0.20285455  0.99901208     0.77070
O1163       O  0.19531329  0.15294392  0.55204067    -0.61370
O1164       O  0.22583411  0.15229014  0.52503703    -0.52290
C1165       C  0.16551122  0.13073690  0.97351741     0.69740
O1166       O  0.16115440  0.15083063  0.97795885    -0.47140
C1167       C  0.21659974  0.15642078  0.93460758     0.74440
O1168       O  0.17667510  0.18989976  0.01249022    -0.59000
O1169       O  0.22439241  0.14838402  0.96213357    -0.49090
O1170       O  0.20701928  0.19363977  0.98514895    -0.55430
C1171       C  0.21603982  0.15073149  0.55380986     0.84620
O1172       O  0.18430803  0.12519882  0.98426830    -0.57330
O1173       O  0.19841930  0.16627884  0.93829214    -0.60620
In1174     In  0.19664963  0.34040326  0.99048649     1.36870
C1175       C  0.19192640  0.29721348  0.99761125     0.77070
O1176       O  0.20135160  0.33492455  0.93410139    -0.61370
O1177       O  0.22646343  0.35227241  0.96096727    -0.52290
C1178       C  0.16452968  0.36663696  0.96778789     0.69740
O1179       O  0.16339617  0.34600392  0.96675453    -0.47140
C1180       C  0.21533182  0.34925916  0.55157937     0.74440
O1181       O  0.17854901  0.31065703  0.01139880    -0.59000
O1182       O  0.22586468  0.34941948  0.52318360    -0.49090
O1183       O  0.20762607  0.30592165  0.98117429    -0.55430
C1184       C  0.21960072  0.34470809  0.93244930     0.84620
O1185       O  0.18084942  0.37391865  0.98435090    -0.57330
O1186       O  0.19484883  0.34613160  0.54826199    -0.60620
In1187     In  0.08630693  0.03837577  0.86928119     1.36870
C1188       C  0.04310204  0.04204065  0.85916737     0.77070
O1189       O  0.09344198  0.03802793  0.81158144    -0.61370
O1190       O  0.09586181  0.00814675  0.83901997    -0.52290
C1191       C  0.11344835  0.06982830  0.89135365     0.69740
O1192       O  0.09328975  0.07332116  0.88546413    -0.47140
C1193       C  0.08686623  0.01851759  0.93008979     0.74440
O1194       O  0.05614322  0.05756808  0.85188075    -0.59000
O1195       O  0.09778091  0.01148915  0.90423993    -0.49090
O1196       O  0.05248607  0.02517779  0.87092936    -0.55430
C1197       C  0.09644220  0.01746078  0.80993767     0.84620
O1198       O  0.12007007  0.05119027  0.88137709    -0.57330
O1199       O  0.07550707  0.03546365  0.92438442    -0.60620
In1200     In  0.90419721  0.03914542  0.87011985     1.36870
C1201       C  0.94754622  0.04147250  0.85990715     0.77070
O1202       O  0.91602705  0.03555736  0.92416183    -0.61370
O1203       O  0.89083452  0.01391236  0.90664659    -0.52290
C1204       C  0.87507902  0.06947584  0.89083360     0.69740
O1205       O  0.89536308  0.07379390  0.88704944    -0.47140
C1206       C  0.89562947  0.01764012  0.81166469     0.74440
O1207       O  0.93508739  0.05763435  0.85288667    -0.59000
O1208       O  0.89695428  0.00848483  0.84080495    -0.49090
O1209       O  0.93750877  0.02505928  0.87168072    -0.55430
C1210       C  0.90343629  0.01968349  0.93094334     0.84620
O1211       O  0.86975410  0.05080229  0.87963743    -0.57330
O1212       O  0.89699639  0.03837690  0.81255166    -0.60620
In1213     In  0.08030563  0.45242959  0.86144021     1.36870
C1214       C  0.03704902  0.44575985  0.85609038     0.77070
O1215       O  0.07043050  0.45648631  0.91693712    -0.61370
O1216       O  0.09154846  0.48033102  0.89394032    -0.52290
C1217       C  0.10975335  0.42344611  0.88455516     0.69740
O1218       O  0.09210445  0.41743650  0.87014539    -0.47140
C1219       C  0.08901735  0.47317575  0.80191004     0.74440
O1220       O  0.05087444  0.43080794  0.84886298    -0.59000
O1221       O  0.08527792  0.48265964  0.83031580    -0.49090
O1222       O  0.04534785  0.46375904  0.86514159    -0.55430
C1223       C  0.08140326  0.47393932  0.92078828     0.84620
O1224       O  0.11335498  0.44375760  0.88313243    -0.57330
O1225       O  0.09006670  0.45248395  0.80399857    -0.60620
In1226     In  0.89900469  0.45164909  0.86205958     1.36870
C1227       C  0.94243682  0.44694665  0.85568995     0.77070
O1228       O  0.90123261  0.45281134  0.80372802    -0.61370
O1229       O  0.88300823  0.47799346  0.82920367    -0.52290
C1230       C  0.87182476  0.41974033  0.88376907     0.69740
O1231       O  0.89240292  0.41725395  0.88114043    -0.47140
C1232       C  0.89763752  0.47411293  0.92110134     0.74440
O1233       O  0.92917330  0.43315996  0.84295514    -0.59000
O1234       O  0.89080281  0.48214046  0.89295791    -0.49090
O1235       O  0.93348736  0.46312553  0.87074865    -0.55430
C1236       C  0.89087995  0.47071993  0.80099696     0.84620
O1237       O  0.86493263  0.43741079  0.87074135    -0.57330
O1238       O  0.90533441  0.45493550  0.91832077    -0.60620
In1239     In  0.78220192  0.15381765  0.98839589     1.36870
C1240       C  0.78798281  0.19693307  0.99632751     0.77070
O1241       O  0.77843388  0.16092812  0.93224585    -0.61370
O1242       O  0.75414666  0.14097938  0.95665904    -0.52290
C1243       C  0.81488637  0.12711285  0.96721495     0.69740
O1244       O  0.81736307  0.14748449  0.97130382    -0.47140
C1245       C  0.76074892  0.14429829  0.54755747     0.74440
O1246       O  0.80051442  0.18311654  0.01064088    -0.59000
O1247       O  0.75120246  0.14774288  0.51922143    -0.49090
O1248       O  0.77256907  0.18855418  0.97912524    -0.55430
C1249       C  0.76106377  0.14981286  0.92901785     0.84620
O1250       O  0.79640595  0.12019849  0.97774487    -0.57330
O1251       O  0.78157194  0.14491729  0.54536571    -0.60620
In1252     In  0.78750923  0.33493626  0.99427662     1.36870
C1253       C  0.79169135  0.29150758  0.49894216     0.77070
O1254       O  0.78735139  0.34038634  0.55260812    -0.61370
O1255       O  0.75789362  0.34542863  0.52488745    -0.52290
C1256       C  0.81694094  0.36414263  0.97106639     0.69740
O1257       O  0.82259109  0.34530659  0.98148006    -0.47140
C1258       C  0.76696265  0.33459286  0.93433500     0.74440
O1259       O  0.80703653  0.30417638  0.00844470    -0.59000
O1260       O  0.75860967  0.34319518  0.96134672    -0.49090
O1261       O  0.77444138  0.30113126  0.48930021    -0.55430
C1262       C  0.76689712  0.34454040  0.55407223     0.84620
O1263       O  0.79699645  0.36880636  0.97698701    -0.57330
O1264       O  0.78576585  0.32613368  0.93847924    -0.60620
In1265     In  0.28325052  0.15826408  0.74367657     1.36870
C1266       C  0.28871476  0.20146404  0.73990725     0.77070
O1267       O  0.28290892  0.15304432  0.68559512    -0.61370
O1268       O  0.25305534  0.15010866  0.71393157    -0.52290
C1269       C  0.31263724  0.12811919  0.76143846     0.69740
O1270       O  0.31800498  0.14779866  0.75564471    -0.47140
C1271       C  0.26315678  0.15567364  0.80426103     0.74440
O1272       O  0.30321277  0.18830483  0.72834739    -0.59000
O1273       O  0.25421770  0.14953585  0.77639430    -0.49090
O1274       O  0.27165447  0.19239043  0.75172439    -0.55430
C1275       C  0.26227147  0.15012274  0.68461472     0.84620
O1276       O  0.29305574  0.12349413  0.75367258    -0.57330
O1277       O  0.28233943  0.16339811  0.80088394    -0.60620
In1278     In  0.28466782  0.33937189  0.74035683     1.36870
C1279       C  0.28904012  0.29605981  0.73509702     0.77070
O1280       O  0.27993613  0.33178639  0.79621428    -0.61370
O1281       O  0.25769337  0.35434095  0.77291716    -0.52290
C1282       C  0.31728096  0.36447825  0.76353049     0.69740
O1283       O  0.31984766  0.34437506  0.75663699    -0.47140
C1284       C  0.26376454  0.34863605  0.68108266     0.74440
O1285       O  0.30294557  0.30889954  0.72138934    -0.59000
O1286       O  0.25411962  0.34453647  0.70937458    -0.49090
O1287       O  0.27299177  0.30555069  0.74975917    -0.55430
C1288       C  0.26347594  0.34429208  0.80000476     0.84620
O1289       O  0.29913248  0.37226640  0.75336807    -0.57330
O1290       O  0.28457488  0.34897270  0.68328474    -0.60620
In1291     In  0.69359088  0.15126720  0.73997614     1.36870
C1292       C  0.69202445  0.19506404  0.73730996     0.77070
O1293       O  0.69561090  0.15731872  0.79697048    -0.61370
O1294       O  0.72241686  0.14092449  0.77192942    -0.52290
C1295       C  0.66264938  0.12289183  0.76012581     0.69740
O1296       O  0.65821934  0.14269164  0.75333822    -0.47140
C1297       C  0.71328172  0.14271480  0.67903913     0.74440
O1298       O  0.67525182  0.18350645  0.73055896    -0.59000
O1299       O  0.72226649  0.13992590  0.70796769    -0.49090
O1300       O  0.70897207  0.18398252  0.74388768    -0.55430
C1301       C  0.71423004  0.14826194  0.79991356     0.84620
O1302       O  0.68202294  0.11719882  0.75187959    -0.57330
O1303       O  0.69308149  0.14795971  0.68108072    -0.60620
In1304     In  0.69946210  0.33398415  0.74545447     1.36870
C1305       C  0.69385006  0.29057490  0.73940913     0.77070
O1306       O  0.69929674  0.33962525  0.68734917    -0.61370
O1307       O  0.72878712  0.34499145  0.71466189    -0.52290
C1308       C  0.67103254  0.36480165  0.76664703     0.69740
O1309       O  0.66470496  0.34667565  0.75418729    -0.47140
C1310       C  0.71997078  0.33334849  0.80532321     0.74440
O1311       O  0.67809575  0.30389410  0.73494928    -0.59000
O1312       O  0.72934212  0.33912330  0.77744163    -0.49090
O1313       O  0.71193292  0.29973900  0.74589320    -0.55430
C1314       C  0.71960163  0.34425717  0.68561822     0.84620
O1315       O  0.69152529  0.36791062  0.76451621    -0.57330
O1316       O  0.70015998  0.32735762  0.80231301    -0.60620
In1317     In  0.39851434  0.03438501  0.84683367     1.36870
C1318       C  0.44122353  0.03809450  0.85964354     0.77070
O1319       O  0.39495186  0.03504158  0.90456127    -0.61370
O1320       O  0.38660341  0.00554574  0.87810818    -0.52290
C1321       C  0.37191437  0.06696427  0.82794231     0.69740
O1322       O  0.39254763  0.06886313  0.82926148    -0.47140
C1323       C  0.39846371  0.01368845  0.78639655     0.74440
O1324       O  0.42800240  0.05400138  0.86378238    -0.59000
O1325       O  0.38636243  0.00778326  0.81150714    -0.49090
O1326       O  0.43239729  0.02066787  0.84872002    -0.55430
C1327       C  0.38980463  0.01502105  0.90675363     0.84620
O1328       O  0.36474908  0.04903987  0.83982894    -0.57330
O1329       O  0.41041631  0.03008660  0.79258108    -0.60620
In1330     In  0.57932091  0.03452438  0.86505263     1.36870
C1331       C  0.53578241  0.03728152  0.87264490     0.77070
O1332       O  0.57165155  0.03122600  0.80906218    -0.61370
O1333       O  0.59187448  0.00667445  0.83248504    -0.52290
C1334       C  0.60700713  0.06564399  0.84347441     0.69740
O1335       O  0.58669605  0.06930032  0.84858344    -0.47140
C1336       C  0.58828227  0.01448321  0.92467110     0.74440
O1337       O  0.54820332  0.05300054  0.88141899    -0.59000
O1338       O  0.58585837  0.00458185  0.89626013    -0.49090
O1339       O  0.54581231  0.02090651  0.86033947    -0.55430
C1340       C  0.58244656  0.01362557  0.80557348     0.84620
O1341       O  0.61328879  0.04696997  0.85349791    -0.57330
O1342       O  0.58756228  0.03521031  0.92249506    -0.60620
In1343     In  0.58604570  0.45331835  0.86972053     1.36870
C1344       C  0.54305629  0.44690162  0.87722053     0.77070
O1345       O  0.59115664  0.45244416  0.92751803    -0.61370
O1346       O  0.59458505  0.48294522  0.90195348    -0.52290
C1347       C  0.61392538  0.42229074  0.84713090     0.69740
O1348       O  0.59337532  0.41953393  0.84897837    -0.47140
C1349       C  0.58669365  0.47495424  0.81025662     0.74440
O1350       O  0.55694546  0.43307257  0.88812190    -0.59000
O1351       O  0.59686987  0.48180184  0.83668787    -0.49090
O1352       O  0.55130485  0.46408043  0.86453902    -0.55430
C1353       C  0.59423624  0.47287365  0.93048690     0.84620
O1354       O  0.62048056  0.44005276  0.86041943    -0.57330
O1355       O  0.57650167  0.45723927  0.81485152    -0.60620
In1356     In  0.40518954  0.44581627  0.87057055     1.36870
C1357       C  0.44857571  0.44148960  0.87384593     0.77070
O1358       O  0.40939551  0.44664142  0.81332465    -0.61370
O1359       O  0.40109516  0.47649117  0.83955373    -0.52290
C1360       C  0.37488258  0.41745204  0.84949204     0.69740
O1361       O  0.39463677  0.41172236  0.85473291    -0.47140
C1362       C  0.39679622  0.46348011  0.93239540     0.74440
O1363       O  0.43590374  0.42594802  0.88265821    -0.59000
O1364       O  0.39100964  0.47253899  0.90453570    -0.49090
O1365       O  0.43895499  0.45888125  0.86490268    -0.55430
C1366       C  0.40503389  0.46683212  0.81104678     0.84620
O1367       O  0.37023509  0.43649277  0.86024890    -0.57330
O1368       O  0.40490465  0.44447294  0.92867336    -0.60620
In1369     In  0.69805098  0.65822312  0.74648152     1.36870
C1370       C  0.69400275  0.70167548  0.75117163     0.77070
O1371       O  0.69721736  0.65317010  0.80482290    -0.61370
O1372       O  0.72728074  0.64845683  0.77764987    -0.52290
C1373       C  0.66772415  0.62974444  0.72492578     0.69740
O1374       O  0.66367042  0.64996820  0.72868468    -0.47140
C1375       C  0.71991141  0.65516231  0.68721767     0.74440
O1376       O  0.67867214  0.68903921  0.76106665    -0.59000
O1377       O  0.72757949  0.64796475  0.71532222    -0.49090
O1378       O  0.71113324  0.69188554  0.74084386    -0.55430
C1379       C  0.71767604  0.64906800  0.80667070     0.84620
O1380       O  0.68615640  0.62392566  0.73671613    -0.57330
O1381       O  0.70109704  0.66394716  0.68962198    -0.60620
In1382     In  0.69632651  0.84014263  0.75101049     1.36870
C1383       C  0.69254949  0.79666137  0.75550534     0.77070
O1384       O  0.69979138  0.83191427  0.69489162    -0.61370
O1385       O  0.72456331  0.85158510  0.71840501    -0.52290
C1386       C  0.66564524  0.86760584  0.72813139     0.69740
O1387       O  0.66082166  0.84887660  0.73989602    -0.47140
C1388       C  0.71570575  0.84988995  0.81131440     0.74440
O1389       O  0.67692661  0.80933455  0.76443242    -0.59000
O1390       O  0.72579127  0.84855043  0.78272780    -0.49090
O1391       O  0.70976858  0.80640497  0.74567625    -0.55430
C1392       C  0.71761807  0.84236704  0.69120654     0.84620
O1393       O  0.68537667  0.87324608  0.73276839    -0.57330
O1394       O  0.69507809  0.84756357  0.80881044    -0.60620
In1395     In  0.39997315  0.94809921  0.59567537     1.36870
C1396       C  0.44338847  0.94227701  0.59252021     0.77070
O1397       O  0.39118483  0.94701969  0.53866428    -0.61370
O1398       O  0.39600409  0.97791152  0.56325216    -0.52290
C1399       C  0.37040733  0.91844826  0.61546107     0.69740
O1400       O  0.39044143  0.91359599  0.61005260    -0.47140
C1401       C  0.39677089  0.96934757  0.65491964     0.74440
O1402       O  0.43040368  0.92850145  0.57905948    -0.59000
O1403       O  0.38895785  0.97711912  0.62724403    -0.49090
O1404       O  0.43412445  0.95883996  0.60566914    -0.55430
C1405       C  0.39206108  0.96765094  0.53562662     0.84620
O1406       O  0.36538050  0.93777402  0.60696397    -0.57330
O1407       O  0.40573618  0.95069935  0.65232099    -0.60620
In1408     In  0.58042900  0.94759557  0.61483996     1.36870
C1409       C  0.53758235  0.94180351  0.60599222     0.77070
O1410       O  0.57021335  0.95333473  0.66934040    -0.61370
O1411       O  0.59310802  0.97555017  0.64685030    -0.52290
C1412       C  0.60789438  0.91707140  0.63869035     0.69740
O1413       O  0.58727325  0.91456756  0.63835896    -0.47140
C1414       C  0.58850773  0.96676541  0.55420971     0.74440
O1415       O  0.55150409  0.92772221  0.59541221    -0.59000
O1416       O  0.58902273  0.97707490  0.58262740    -0.49090
O1417       O  0.54574428  0.95868264  0.61976127    -0.55430
C1418       C  0.58229267  0.96993540  0.67352560     0.84620
O1419       O  0.61454533  0.93383056  0.62261494    -0.57330
O1420       O  0.58576947  0.94628150  0.55716662    -0.60620
In1421     In  0.40374243  0.53292218  0.62045104     1.36870
C1422       C  0.44685975  0.54029156  0.61205726     0.77070
O1423       O  0.41593995  0.53004416  0.67458651    -0.61370
O1424       O  0.39383329  0.50582453  0.65588891    -0.52290
C1425       C  0.37351618  0.56224554  0.64069707     0.69740
O1426       O  0.39032603  0.56759895  0.62302438    -0.47140
C1427       C  0.39480658  0.51151131  0.56179696     0.74440
O1428       O  0.43309078  0.55588655  0.61411128    -0.59000
O1429       O  0.39957168  0.50218359  0.58976104    -0.49090
O1430       O  0.43822701  0.52154816  0.61323058    -0.55430
C1431       C  0.40532635  0.51271206  0.68084956     0.84620
O1432       O  0.37128908  0.54185699  0.64491796    -0.57330
O1433       O  0.39283079  0.53214013  0.56404095    -0.60620
In1434     In  0.58585882  0.54151371  0.62022257     1.36870
C1435       C  0.54216298  0.54376512  0.61362185     0.77070
O1436       O  0.59204982  0.54212752  0.56191922    -0.61370
O1437       O  0.59622904  0.51223116  0.58896328    -0.52290
C1438       C  0.61403432  0.57251169  0.63977137     0.69740
O1439       O  0.59414765  0.57671836  0.63277150    -0.47140
C1440       C  0.58804938  0.52127382  0.68042681     0.74440
O1441       O  0.55437204  0.55992550  0.60627737    -0.59000
O1442       O  0.59408547  0.51224831  0.65236384    -0.49090
O1443       O  0.55235958  0.52732409  0.62486947    -0.55430
C1444       C  0.59583705  0.52172029  0.56002749     0.84620
O1445       O  0.61997574  0.55313647  0.63242498    -0.57330
O1446       O  0.58097041  0.54068949  0.67774578    -0.60620
In1447     In  0.28543285  0.65323299  0.73013411     1.36870
C1448       C  0.28799053  0.69689223  0.73363906     0.77070
O1449       O  0.28385927  0.65552325  0.67258137    -0.61370
O1450       O  0.25520188  0.64480924  0.69980950    -0.52290
C1451       C  0.31703421  0.62471621  0.71242528     0.69740
O1452       O  0.31950155  0.64522754  0.71031607    -0.47140
C1453       C  0.26623740  0.64515283  0.79141713     0.74440
O1454       O  0.30392187  0.68476029  0.74254725    -0.59000
O1455       O  0.25714462  0.64140078  0.76269808    -0.49090
O1456       O  0.27126816  0.68648986  0.72378405    -0.55430
C1457       C  0.26409174  0.64936103  0.67098435     0.84620
O1458       O  0.29935257  0.61886300  0.72721230    -0.57330
O1459       O  0.28599242  0.65164932  0.78878344    -0.60620
In1460     In  0.28048908  0.83505505  0.71707799     1.36870
C1461       C  0.28392673  0.79182279  0.72603709     0.77070
O1462       O  0.28143148  0.84324361  0.77434514    -0.61370
O1463       O  0.25071779  0.84412526  0.74894875    -0.52290
C1464       C  0.31230212  0.86170048  0.69491812     0.69740
O1465       O  0.31535173  0.84142408  0.69944777    -0.47140
C1466       C  0.25924546  0.83834250  0.65799204     0.74440
O1467       O  0.29908830  0.80479665  0.73509821    -0.59000
O1468       O  0.25203991  0.84682808  0.68580542    -0.49090
O1469       O  0.26765254  0.80115174  0.71239731    -0.55430
C1470       C  0.26080958  0.84592462  0.77723767     0.84620
O1471       O  0.29384032  0.86858645  0.70582580    -0.57330
O1472       O  0.27726508  0.82809770  0.66062174    -0.60620
C1473       C  0.26746431  0.73186649  0.73160904    -0.09670
C1474       C  0.28799378  0.72126549  0.73425300     0.06530
C1475       C  0.30728671  0.73421564  0.73574343    -0.03430
C1476       C  0.30561607  0.75722299  0.73401530    -0.07880
C1477       C  0.28502044  0.76767040  0.73036279     0.05640
C1478       C  0.26576940  0.75464273  0.72960920    -0.02910
Br1479     Br  0.23633517  0.76643709  0.72662483    -0.02600
H1480       H  0.25240041  0.72233863  0.73083745     0.09560
H1481       H  0.32056057  0.76693967  0.73447568     0.07570
Br1482     Br  0.33635944  0.72171767  0.73798935    -0.03030
C1483       C  0.35003651  0.57314613  0.69096295    -0.09670
C1484       C  0.35861605  0.57833317  0.65794264     0.06530
C1485       C  0.35385958  0.59906865  0.64365305    -0.03430
C1486       C  0.34106854  0.61422749  0.66260364    -0.07880
C1487       C  0.33245750  0.60899947  0.69556930     0.05640
C1488       C  0.33708173  0.58822294  0.70974891    -0.02910
Br1489     Br  0.32727066  0.58010675  0.75541665    -0.02600
H1490       H  0.35385138  0.55742421  0.70263629     0.09560
H1491       H  0.33714879  0.62992171  0.65093221     0.07570
Br1492     Br  0.36281086  0.60686449  0.59742228    -0.03030
C1493       C  0.48362716  0.52376792  0.60236027    -0.09670
C1494       C  0.47118316  0.54281509  0.60938482     0.06530
C1495       C  0.48246640  0.56275063  0.61559939    -0.03430
C1496       C  0.50567010  0.56302902  0.61543949    -0.07880
C1497       C  0.51791151  0.54366866  0.60986234     0.05640
C1498       C  0.50659727  0.52396114  0.60270568    -0.02910
Br1499     Br  0.52130405  0.49658513  0.59245164    -0.02600
H1500       H  0.47544820  0.50832134  0.59705443     0.09560
H1501       H  0.51415702  0.57825162  0.62110907     0.07570
Br1502     Br  0.46750559  0.58977523  0.62655354    -0.03030
C1503       C  0.36277916  0.88321972  0.64582831    -0.09670
C1504       C  0.35476745  0.90336844  0.63324083     0.06530
C1505       C  0.33278068  0.90951436  0.64142730    -0.03430
C1506       C  0.31980417  0.89599863  0.66253686    -0.07880
C1507       C  0.32788423  0.87600477  0.67550602     0.05640
C1508       C  0.34963012  0.86953117  0.66654492    -0.02910
Br1509     Br  0.36283170  0.84263419  0.68218609    -0.02600
H1510       H  0.37958837  0.87819380  0.64012018     0.09560
H1511       H  0.30299025  0.90103416  0.66820487     0.07570
Br1512     Br  0.31887854  0.93584155  0.62470376    -0.03030
C1513       C  0.50411703  0.93232012  0.57181360    -0.09670
C1514       C  0.51355759  0.93910061  0.60326155     0.06530
C1515       C  0.49971728  0.94509176  0.63130528    -0.03430
C1516       C  0.47693633  0.94521425  0.62714581    -0.07880
C1517       C  0.46740768  0.93934820  0.59543114     0.05640
C1518       C  0.48109936  0.93255433  0.56764077    -0.02910
Br1519     Br  0.46937707  0.92583848  0.52279608    -0.02600
H1520       H  0.51465542  0.92792508  0.54999877     0.09560
H1521       H  0.46654294  0.95021132  0.64884540     0.07570
Br1522     Br  0.51090476  0.95289518  0.67624340    -0.03030
C1523       C  0.61403284  0.89344157  0.69017865    -0.09670
C1524       C  0.62261335  0.90298768  0.65966883     0.06530
C1525       C  0.64539410  0.90099762  0.65253174    -0.03430
C1526       C  0.65907202  0.89005605  0.67595468    -0.07880
C1527       C  0.65051531  0.88070103  0.70652483     0.05640
C1528       C  0.62775429  0.88238847  0.71351656    -0.02910
Br1529     Br  0.61494912  0.87135870  0.75567658    -0.02600
H1530       H  0.59667930  0.89524795  0.69658678     0.09560
H1531       H  0.67646507  0.88830384  0.66971941     0.07570
Br1532     Br  0.65864593  0.91178377  0.61049240    -0.03030
C1533       C  0.64458261  0.57874730  0.68084342    -0.09670
C1534       C  0.62847759  0.58784858  0.65912084     0.06530
C1535       C  0.62500495  0.61077500  0.66003696    -0.03430
C1536       C  0.63732142  0.62393258  0.68269268    -0.07880
C1537       C  0.65320559  0.61474722  0.70489963     0.05640
C1538       C  0.65661313  0.59176927  0.70388522    -0.02910
Br1539     Br  0.67657897  0.57670127  0.73418647    -0.02600
H1540       H  0.64728827  0.56114140  0.68095862     0.09560
H1541       H  0.63481389  0.64156355  0.68223899     0.07570
Br1542     Br  0.60470601  0.62524201  0.62963868    -0.03030
C1543       C  0.67792147  0.73679196  0.77433515    -0.09670
C1544       C  0.69240034  0.72594620  0.75118266     0.06530
C1545       C  0.70571975  0.73863239  0.72865443    -0.03430
C1546       C  0.70513097  0.76145856  0.73078133    -0.07880
C1547       C  0.69125294  0.77238977  0.75454755     0.05640
C1548       C  0.67723501  0.75986401  0.77618138    -0.02910
Br1549     Br  0.65792268  0.77313053  0.81001512    -0.02600
H1550       H  0.66752476  0.72731365  0.79167361     0.09560
H1551       H  0.71558816  0.77078426  0.71329408     0.07570
Br1552     Br  0.72446704  0.72624471  0.69296550    -0.03030
C1553       C  0.37759931  0.48896132  0.97382921    -0.09670
C1554       C  0.39546827  0.47484733  0.96629703     0.06530
C1555       C  0.41283063  0.47315598  0.99031188    -0.03430
C1556       C  0.41180458  0.48495569  0.52140720    -0.07880
C1557       C  0.39405510  0.49908224  0.52892763     0.05640
C1558       C  0.37678231  0.50103758  0.50495901    -0.02910
Br1559     Br  0.35139921  0.51902120  0.51446852    -0.02600
H1560       H  0.36424768  0.49056896  0.95549086     0.09560
H1561       H  0.42541112  0.48368607  0.53938483     0.07570
Br1562     Br  0.43954178  0.45700366  0.98066943    -0.03030
C1563       C  0.41427318  0.49935902  0.77598921    -0.09670
C1564       C  0.40509630  0.47831193  0.77773801     0.06530
C1565       C  0.39656410  0.46851306  0.74757442    -0.03430
C1566       C  0.39687974  0.48009414  0.71645162    -0.07880
C1567       C  0.40602320  0.50124302  0.71447319     0.05640
C1568       C  0.41515220  0.51077579  0.74465310    -0.02910
Br1569     Br  0.42896964  0.53915615  0.74567545    -0.02600
H1570       H  0.42117202  0.50681101  0.79905518     0.09560
H1571       H  0.38991701  0.47242343  0.69362480     0.07570
Br1572     Br  0.38332588  0.43985825  0.74740634    -0.03030
C1573       C  0.58955098  0.48757211  0.52657114    -0.09670
C1574       C  0.59767910  0.50916957  0.52701548     0.06530
C1575       C  0.60577226  0.51825806  0.99583305    -0.03430
C1576       C  0.60515757  0.50589489  0.96500057    -0.07880
C1577       C  0.59643550  0.48445359  0.96437422     0.05640
C1578       C  0.58859942  0.47532677  0.99582526    -0.02910
Br1579     Br  0.57447978  0.44714236  0.49869807    -0.02600
H1580       H  0.58290756  0.48042784  0.55016430     0.09560
H1581       H  0.61131842  0.51323601  0.94125737     0.07570
Br1582     Br  0.61840526  0.54710302  0.99393698    -0.03030
C1583       C  0.59896692  0.50613952  0.77361984    -0.09670
C1584       C  0.58669878  0.48666297  0.77672799     0.06530
C1585       C  0.57482915  0.47889700  0.74760090    -0.03430
C1586       C  0.57608228  0.49023237  0.71626191    -0.07880
C1587       C  0.58822476  0.50962071  0.71349641     0.05640
C1588       C  0.59957516  0.51774896  0.74243130    -0.02910
Br1589     Br  0.61675747  0.54409903  0.74027947    -0.02600
H1590       H  0.60811077  0.51244412  0.79552408     0.09560
H1591       H  0.56699714  0.48419617  0.69407829     0.07570
Br1592     Br  0.55587097  0.45359112  0.74816380    -0.03030
C1593       C  0.48413101  0.43154846  0.90200160    -0.09670
C1594       C  0.47278661  0.44001477  0.87334499     0.06530
C1595       C  0.48481800  0.44918881  0.84554048    -0.03430
C1596       C  0.50767007  0.45079962  0.84746630    -0.07880
C1597       C  0.51905946  0.44324309  0.87661531     0.05640
C1598       C  0.50721341  0.43316532  0.90387253    -0.02910
Br1599     Br  0.52140598  0.42340446  0.94536703    -0.02600
H1600       H  0.47497429  0.42468238  0.92364601     0.09560
H1601       H  0.51663217  0.45811719  0.82596205     0.07570
Br1602     Br  0.47099581  0.45940266  0.80380205    -0.03030
C1603       C  0.57750298  0.98291529  0.96097005    -0.09670
C1604       C  0.58994702  0.00223693  0.95766274     0.06530
C1605       C  0.60263026  0.00940411  0.98599468    -0.03430
C1606       C  0.60246124  0.99733384  0.51700352    -0.07880
C1607       C  0.58980190  0.97809093  0.52032593     0.05640
C1608       C  0.57706651  0.97104638  0.49192228    -0.02910
Br1609     Br  0.55675807  0.94688658  0.49475682    -0.02600
H1610       H  0.56726321  0.97745154  0.93970336     0.09560
H1611       H  0.61220470  0.00305204  0.53866299     0.07570
Br1612     Br  0.62109204  0.03489416  0.98326141    -0.03030
C1613       C  0.59771562  0.00909643  0.74658855    -0.09670
C1614       C  0.58331731  0.00188811  0.77267021     0.06530
C1615       C  0.56896246  0.98435942  0.76639000    -0.03430
C1616       C  0.56899405  0.97430104  0.73389895    -0.07880
C1617       C  0.58329327  0.98142736  0.70726170     0.05640
C1618       C  0.59800555  0.99892539  0.71400754    -0.02910
Br1619     Br  0.61910383  0.00972286  0.68076887    -0.02600
H1620       H  0.60874239  0.02270922  0.75161672     0.09560
H1621       H  0.55760239  0.96091118  0.72949642     0.07570
Br1622     Br  0.54856343  0.97411422  0.80108816    -0.03030
C1623       C  0.37256964  0.98840718  0.94809374    -0.09670
C1624       C  0.38963143  0.00317687  0.93998195     0.06530
C1625       C  0.40749065  0.00541258  0.96290905    -0.03430
C1626       C  0.40763871  0.99372330  0.99390157    -0.07880
C1627       C  0.39056020  0.97920521  0.00232367     0.05640
C1628       C  0.37289759  0.97645195  0.97921020    -0.02910
Br1629     Br  0.34845370  0.95766769  0.99003883    -0.02600
H1630       H  0.35892061  0.98634517  0.93041570     0.09560
H1631       H  0.42152193  0.99556544  0.01121725     0.07570
Br1632     Br  0.43325446  0.02245334  0.95187170    -0.03030
C1633       C  0.37991777  0.98975464  0.74350333    -0.09670
C1634       C  0.39834301  0.00252593  0.75240221     0.06530
C1635       C  0.41607723  0.00442750  0.72845602    -0.03430
C1636       C  0.41490843  0.99385163  0.69634581    -0.07880
C1637       C  0.39644911  0.98134737  0.68766210     0.05640
C1638       C  0.37891463  0.97915659  0.71135200    -0.02910
Br1639     Br  0.35363371  0.96149752  0.70096001    -0.02600
H1640       H  0.36621053  0.98805180  0.76151596     0.09560
H1641       H  0.42866039  0.99504616  0.67826589     0.07570
Br1642     Br  0.44295678  0.01989191  0.73827059    -0.03030
C1643       C  0.50023951  0.05806191  0.87272964    -0.09670
C1644       C  0.51143252  0.03786749  0.87477274     0.06530
C1645       C  0.49905319  0.01824055  0.87536707    -0.03430
C1646       C  0.47626632  0.01902826  0.87128977    -0.07880
C1647       C  0.46511447  0.03905498  0.86706052     0.05640
C1648       C  0.47722885  0.05883922  0.86895998    -0.02910
Br1649     Br  0.46382551  0.08729277  0.86434633    -0.02600
H1650       H  0.50949252  0.07326451  0.87247662     0.09560
H1651       H  0.46720946  0.00369778  0.87113436     0.07570
Br1652     Br  0.51189291  0.98964545  0.88225052    -0.03030
C1653       C  0.66455489  0.39078946  0.81534105    -0.09670
C1654       C  0.65628657  0.38019514  0.78567476     0.06530
C1655       C  0.63397153  0.38324172  0.77698283    -0.03430
C1656       C  0.62036335  0.39644334  0.79807822    -0.07880
C1657       C  0.62860976  0.40693728  0.82787451     0.05640
C1658       C  0.65095567  0.40392781  0.83648862    -0.02910
Br1659     Br  0.66343333  0.41606820  0.87794485    -0.02600
H1660       H  0.68158054  0.38830422  0.82276565     0.09560
H1661       H  0.60337278  0.39903773  0.79054525     0.07570
Br1662     Br  0.62167319  0.37112983  0.73539397    -0.03030
C1663       C  0.65725887  0.09098664  0.79901179    -0.09670
C1664       C  0.64764724  0.10808702  0.77984064     0.06530
C1665       C  0.62470266  0.11172130  0.78323119    -0.03430
C1666       C  0.61200753  0.09828734  0.80517591    -0.07880
C1667       C  0.62164766  0.08109072  0.82423748     0.05640
C1668       C  0.64467766  0.07768902  0.82110004    -0.02910
Br1669     Br  0.66046461  0.05573256  0.84675739    -0.02600
H1670       H  0.67491586  0.08824233  0.79759885     0.09560
H1671       H  0.59435055  0.10100459  0.80660593     0.07570
Br1672     Br  0.60947968  0.13398492  0.75753698    -0.03030
C1673       C  0.71029134  0.25420416  0.75045626    -0.09670
C1674       C  0.69210896  0.26620329  0.73838233     0.06530
C1675       C  0.67349645  0.25453552  0.72642260    -0.03430
C1676       C  0.67370905  0.23140216  0.72624872    -0.07880
C1677       C  0.69214124  0.21949889  0.73801558     0.05640
C1678       C  0.71050182  0.23133450  0.75065655    -0.02910
Br1679     Br  0.73653949  0.21802244  0.76991902    -0.02600
H1680       H  0.72463137  0.26268546  0.76034625     0.09560
H1681       H  0.65940995  0.22270240  0.71670479     0.07570
Br1682     Br  0.64752318  0.26893152  0.70951107    -0.03030
C1683       C  0.32918079  0.40028147  0.78799342    -0.09670
C1684       C  0.33307672  0.37762528  0.78440053     0.06530
C1685       C  0.35024384  0.36801514  0.80404154    -0.03430
C1686       C  0.36322793  0.38116906  0.82573169    -0.07880
C1687       C  0.35924100  0.40381016  0.82928986     0.05640
C1688       C  0.34184246  0.41332123  0.81012505    -0.02910
Br1689     Br  0.33479423  0.44416109  0.81115561    -0.02600
H1690       H  0.31597986  0.40800320  0.77364778     0.09560
H1691       H  0.37651333  0.37358320  0.84007664     0.07570
Br1692     Br  0.35646072  0.33702976  0.80422573    -0.03030
C1693       C  0.33444894  0.08203085  0.81783280    -0.09670
C1694       C  0.35729361  0.08365071  0.81210394     0.06530
C1695       C  0.36528401  0.10005470  0.78925614    -0.03430
C1696       C  0.35044962  0.11420154  0.77281478    -0.07880
C1697       C  0.32763133  0.11223249  0.77808437     0.05640
C1698       C  0.31965910  0.09611229  0.80129857    -0.02910
Br1699     Br  0.28897584  0.09323949  0.81358602    -0.02600
H1700       H  0.32797406  0.06970323  0.83537671     0.09560
H1701       H  0.35679145  0.12665827  0.75538327     0.07570
Br1702     Br  0.39596165  0.10359994  0.77752317    -0.03030
C1703       C  0.30188477  0.23621767  0.71243132    -0.09670
C1704       C  0.29103640  0.22557077  0.73999699     0.06530
C1705       C  0.28119171  0.23830474  0.76661424    -0.03430
C1706       C  0.28125122  0.26110864  0.76433651    -0.07880
C1707       C  0.29116404  0.27187903  0.73612462     0.05640
C1708       C  0.30198630  0.25926452  0.71025026    -0.02910
Br1709     Br  0.31557219  0.27235154  0.67024678    -0.02600
H1710       H  0.30951703  0.22660141  0.69185141     0.09560
H1711       H  0.27340080  0.27052736  0.78496936     0.07570
Br1712     Br  0.26799630  0.22575121  0.80759014    -0.03030
C1713       C  0.76592214  0.34987353  0.61823069    -0.09670
C1714       C  0.75431020  0.34707114  0.58718424     0.06530
C1715       C  0.73101708  0.34511155  0.58891357    -0.03430
C1716       C  0.72014572  0.34530048  0.62111624    -0.07880
C1717       C  0.73181457  0.34724942  0.65226824     0.05640
C1718       C  0.75503853  0.35003085  0.65048634    -0.02910
Br1719     Br  0.77342780  0.35329224  0.69059004    -0.02600
H1720       H  0.78371919  0.35147900  0.61752766     0.09560
H1721       H  0.70241547  0.34310114  0.62175285     0.07570
Br1722     Br  0.71275358  0.34036854  0.54902387    -0.03030
C1723       C  0.73267392  0.33904087  0.90080184    -0.09670
C1724       C  0.75534080  0.33412865  0.90093686     0.06530
C1725       C  0.76614705  0.32891481  0.86927161    -0.03430
C1726       C  0.75417979  0.32876360  0.83853763    -0.07880
C1727       C  0.73153807  0.33347048  0.83857207     0.05640
C1728       C  0.72071887  0.33870757  0.87004476    -0.02910
Br1729     Br  0.69010071  0.34691188  0.87264170    -0.02600
H1730       H  0.72412569  0.34318809  0.92477412     0.09560
H1731       H  0.76263364  0.32482339  0.81438809     0.07570
Br1732     Br  0.79716448  0.32250041  0.86525291    -0.03030
C1733       C  0.75979418  0.14548924  0.61198523    -0.09670
C1734       C  0.74861416  0.14124036  0.58095802     0.06530
C1735       C  0.72585402  0.13603901  0.58275308    -0.03430
C1736       C  0.71473231  0.13614321  0.61490482    -0.07880
C1737       C  0.72583898  0.14107082  0.64578546     0.05640
C1738       C  0.74873664  0.14560875  0.64402392    -0.02910
Br1739     Br  0.76576723  0.15433383  0.68361935    -0.02600
H1740       H  0.77713709  0.14974664  0.61126360     0.09560
H1741       H  0.69725883  0.13245850  0.61573024     0.07570
Br1742     Br  0.70894790  0.12820894  0.54264414    -0.03030
C1743       C  0.72643637  0.14560551  0.89607357    -0.09670
C1744       C  0.74947504  0.14784247  0.89575563     0.06530
C1745       C  0.76084649  0.14877235  0.86365880    -0.03430
C1746       C  0.74901026  0.14827297  0.83276311    -0.07880
C1747       C  0.72591292  0.14705411  0.83312487     0.05640
C1748       C  0.71458366  0.14530699  0.86513366    -0.02910
Br1749     Br  0.68314509  0.14161541  0.86835230    -0.02600
H1750       H  0.71753919  0.14455869  0.92052986     0.09560
H1751       H  0.75790927  0.14932750  0.80830281     0.07570
Br1752     Br  0.79248195  0.14991554  0.85997670    -0.03030
C1753       C  0.78454816  0.23308045  0.96853869    -0.09670
C1754       C  0.79109623  0.22100738  0.99762604     0.06530
C1755       C  0.79955582  0.23230876  0.52668628    -0.03430
C1756       C  0.80077143  0.25539422  0.52636039    -0.07880
C1757       C  0.79337946  0.26735092  0.99757654     0.05640
C1758       C  0.78564599  0.25592351  0.96824084    -0.02910
Br1759     Br  0.77677511  0.27056005  0.92644892    -0.02600
H1760       H  0.77839712  0.22467280  0.94574909     0.09560
H1761       H  0.80650171  0.26403551  0.54918647     0.07570
Br1762     Br  0.80760622  0.21734534  0.56846013    -0.03030
C1763       C  0.82164364  0.39150166  0.92397589    -0.09670
C1764       C  0.83144261  0.37868385  0.95001597     0.06530
C1765       C  0.85461572  0.37875482  0.95283143    -0.03430
C1766       C  0.86739895  0.39146839  0.92995209    -0.07880
C1767       C  0.85758768  0.40441287  0.90398884     0.05640
C1768       C  0.83437963  0.40417466  0.90107142    -0.02910
Br1769     Br  0.81900671  0.41995095  0.86555819    -0.02600
H1770       H  0.80390015  0.39125075  0.92077863     0.09560
H1771       H  0.88512334  0.39177722  0.93330422     0.07570
Br1772     Br  0.86960882  0.36308319  0.98880721    -0.03030
C1773       C  0.00176918  0.44311589  0.82383394    -0.09670
C1774       C  0.01300503  0.44277317  0.85552621     0.06530
C1775       C  0.00087403  0.44279510  0.88683252    -0.03430
C1776       C  0.97784038  0.44354686  0.88619368    -0.07880
C1777       C  0.96655639  0.44425719  0.85462782     0.05640
C1778       C  0.97861459  0.44393667  0.82321093    -0.02910
Br1779     Br  0.96427231  0.44698572  0.77930816    -0.02600
H1780       H  0.01101301  0.44380176  0.79966467     0.09560
H1781       H  0.96868265  0.44392976  0.91048757     0.07570
Br1782     Br  0.01513885  0.44229008  0.93112105    -0.03030
C1783       C  0.82502126  0.09093277  0.94155749    -0.09670
C1784       C  0.83126003  0.11262194  0.94914708     0.06530
C1785       C  0.85194509  0.12010946  0.93657926    -0.03430
C1786       C  0.86561713  0.10599740  0.91699622    -0.07880
C1787       C  0.85922140  0.08436588  0.90916232     0.05640
C1788       C  0.83858093  0.07688150  0.92194796    -0.02910
Br1789     Br  0.82772695  0.04751035  0.91520440    -0.02600
H1790       H  0.80925016  0.08478718  0.95065772     0.09560
H1791       H  0.88146244  0.11200288  0.90798293     0.07570
Br1792     Br  0.86290827  0.14920041  0.94508110    -0.03030
C1793       C  0.00739408  0.02298135  0.86072757    -0.09670
C1794       C  0.01874893  0.04273275  0.85535211     0.06530
C1795       C  0.00641499  0.06196288  0.84839328    -0.03430
C1796       C  0.98320591  0.06118165  0.84891629    -0.07880
C1797       C  0.97194816  0.04148158  0.85600142     0.05640
C1798       C  0.98448103  0.02207800  0.86099921    -0.02910
Br1799     Br  0.97218431  0.99331797  0.86847839    -0.02600
H1800       H  0.01642338  0.00788307  0.86529718     0.09560
H1801       H  0.97395457  0.07616610  0.84458587     0.07570
Br1802     Br  0.01994813  0.08980383  0.83899685    -0.03030
C1803       C  0.24822900  0.35977242  0.58660444    -0.09670
C1804       C  0.22654917  0.35149728  0.58569224     0.06530
C1805       C  0.21696113  0.34391167  0.61699435    -0.03430
C1806       C  0.22924496  0.34398142  0.64758935    -0.07880
C1807       C  0.25121460  0.35137562  0.64825409     0.05640
C1808       C  0.26050062  0.35990340  0.61738551    -0.02910
Br1809     Br  0.28954760  0.37235907  0.61542936    -0.02600
H1810       H  0.25585575  0.36594594  0.56305891     0.09560
H1811       H  0.22167933  0.33740054  0.67090590     0.07570
Br1812     Br  0.18782610  0.33165306  0.61999654    -0.03030
C1813       C  0.21909465  0.34987706  0.86911071    -0.09670
C1814       C  0.23150914  0.34689837  0.89933189     0.06530
C1815       C  0.25455254  0.34434141  0.89673251    -0.03430
C1816       C  0.26466180  0.34413102  0.86402603    -0.07880
C1817       C  0.25218579  0.34664627  0.83371665     0.05640
C1818       C  0.22920633  0.34989726  0.83643604    -0.02910
Br1819     Br  0.21044283  0.35246224  0.79671360    -0.02600
H1820       H  0.20132914  0.35175127  0.87088712     0.09560
H1821       H  0.28233846  0.34155851  0.86223459     0.07570
Br1822     Br  0.27275881  0.33901806  0.93638594    -0.03030
C1823       C  0.12974414  0.41519462  0.93871241    -0.09670
C1824       C  0.12392940  0.40860623  0.90498198     0.06530
C1825       C  0.13090935  0.38792453  0.89269935    -0.03430
C1826       C  0.14342640  0.37420211  0.91416483    -0.07880
C1827       C  0.14934888  0.38083425  0.94788440     0.05640
C1828       C  0.14227053  0.40151739  0.96015707    -0.02910
Br1829     Br  0.14811144  0.41128541  0.50657336    -0.02600
H1830       H  0.12410910  0.43092842  0.94872490     0.09560
H1831       H  0.14922992  0.35857643  0.90398620     0.07570
Br1832     Br  0.12538270  0.37859747  0.84598340    -0.03030
C1833       C  0.26164019  0.14441634  0.62073656    -0.09670
C1834       C  0.24984187  0.14781134  0.65179887     0.06530
C1835       C  0.22660919  0.15030211  0.65033050    -0.03430
C1836       C  0.21599981  0.15018823  0.61824104    -0.07880
C1837       C  0.22790928  0.14777347  0.58704966     0.05640
C1838       C  0.25101489  0.14429422  0.58863172    -0.02910
Br1839     Br  0.26946818  0.13948028  0.54845872    -0.02600
H1840       H  0.27938020  0.14221557  0.62129834     0.09560
H1841       H  0.19832198  0.15283502  0.61770941     0.07570
Br1842     Br  0.20811598  0.15547319  0.69038979    -0.03030
C1843       C  0.25108758  0.15205859  0.90057155    -0.09670
C1844       C  0.22810624  0.15497469  0.90098257     0.06530
C1845       C  0.21676295  0.15700676  0.86929163    -0.03430
C1846       C  0.22859277  0.15670751  0.83814654    -0.07880
C1847       C  0.25162264  0.15460792  0.83780984     0.05640
C1848       C  0.26293149  0.15195221  0.86935261    -0.02910
Br1849     Br  0.29426358  0.14727611  0.87165636    -0.02600
H1850       H  0.25996842  0.15024296  0.92469187     0.09560
H1851       H  0.21972685  0.15854662  0.81401422     0.07570
Br1852     Br  0.18519507  0.15956722  0.86615671    -0.03030
C1853       C  0.15988185  0.09450826  0.94520513    -0.09670
C1854       C  0.15109636  0.11517413  0.95428584     0.06530
C1855       C  0.13005740  0.12095875  0.94148904    -0.03430
C1856       C  0.11853490  0.10624038  0.92021173    -0.07880
C1857       C  0.12743595  0.08562519  0.91093190     0.05640
C1858       C  0.14846432  0.07985919  0.92386652    -0.02910
Br1859     Br  0.16284657  0.05223564  0.91446104    -0.02600
H1860       H  0.17605995  0.08972531  0.95429438     0.09560
H1861       H  0.10232499  0.11093094  0.91115612     0.07570
Br1862     Br  0.11575454  0.14842437  0.95205522    -0.03030
C1863       C  0.18345157  0.23860800  0.52899053    -0.09670
C1864       C  0.18811370  0.22690167  0.99832984     0.06530
C1865       C  0.19255946  0.23851283  0.96748006    -0.03430
C1866       C  0.19322672  0.26139531  0.96796451    -0.07880
C1867       C  0.18933384  0.27317527  0.99872975     0.05640
C1868       C  0.18417213  0.26167065  0.52943392    -0.02910
Br1869     Br  0.18040581  0.27646257  0.57308981    -0.02600
H1870       H  0.18034711  0.22980687  0.55292727     0.09560
H1871       H  0.19693366  0.27007366  0.94409645     0.07570
Br1872     Br  0.19735721  0.22398554  0.92364042    -0.03030
C1873       C  0.24702322  0.85088710  0.87390122    -0.09670
C1874       C  0.22378304  0.85148968  0.87352813     0.06530
C1875       C  0.21315140  0.85247872  0.84110316    -0.03430
C1876       C  0.22568361  0.85162839  0.81033545    -0.07880
C1877       C  0.24887350  0.84973279  0.81074806     0.05640
C1878       C  0.25955117  0.84993187  0.84320500    -0.02910
Br1879     Br  0.29102455  0.84799498  0.84823617    -0.02600
H1880       H  0.25565078  0.85028945  0.89839112     0.09560
H1881       H  0.21706064  0.85184164  0.78582265     0.07570
Br1882     Br  0.18169688  0.85477921  0.83655289    -0.03030
C1883       C  0.21448098  0.84053875  0.59056930    -0.09670
C1884       C  0.22707014  0.84182387  0.55989562     0.06530
C1885       C  0.25027019  0.84265644  0.56181146    -0.03430
C1886       C  0.26039803  0.84169302  0.59418509    -0.07880
C1887       C  0.24776699  0.84022010  0.62479930     0.05640
C1888       C  0.22458229  0.83983417  0.62288831    -0.02910
Br1889     Br  0.20583486  0.83660162  0.66300493    -0.02600
H1890       H  0.19663677  0.83982484  0.58940429     0.09560
H1891       H  0.27825186  0.84196577  0.59544558     0.07570
Br1892     Br  0.26907520  0.84354862  0.52143804    -0.03030
C1893       C  0.23071569  0.64527597  0.82425270    -0.09670
C1894       C  0.25387543  0.64353790  0.82487322     0.06530
C1895       C  0.26433818  0.64187235  0.85732239    -0.03430
C1896       C  0.25172501  0.64261757  0.88800601    -0.07880
C1897       C  0.22860016  0.64523852  0.88749133     0.05640
C1898       C  0.21809883  0.64632963  0.85490040    -0.02910
Br1899     Br  0.18684911  0.65041928  0.84970211    -0.02600
H1900       H  0.22231562  0.64671117  0.79964733     0.09560
H1901       H  0.26023740  0.64157414  0.91255654     0.07570
Br1902     Br  0.29567975  0.63826613  0.86177870    -0.03030
C1903       C  0.25060903  0.64393764  0.57584219    -0.09670
C1904       C  0.22924865  0.65295752  0.57519374     0.06530
C1905       C  0.21903913  0.65945551  0.60679942    -0.03430
C1906       C  0.23043871  0.65718910  0.63789510    -0.07880
C1907       C  0.25201412  0.64892528  0.63821779     0.05640
C1908       C  0.26207524  0.64202336  0.60695250    -0.02910
Br1909     Br  0.29104280  0.62912487  0.60534972    -0.02600
H1910       H  0.25859227  0.63859504  0.55198199     0.09560
H1911       H  0.22263731  0.66257635  0.66189533     0.07570
Br1912     Br  0.18961207  0.67125713  0.61009215    -0.03030
C1913       C  0.17608762  0.73512900  0.94890866    -0.09670
C1914       C  0.19057513  0.72515180  0.97253251     0.06530
C1915       C  0.20380478  0.73869058  0.99368035    -0.03430
C1916       C  0.20311958  0.76140788  0.98981659    -0.07880
C1917       C  0.18919412  0.77147327  0.96566140     0.05640
C1918       C  0.17527695  0.75813576  0.94534975    -0.02910
Br1919     Br  0.15590115  0.77019188  0.91118475    -0.02600
H1920       H  0.16576086  0.72500644  0.93257794     0.09560
H1921       H  0.21347162  0.77136844  0.50639160     0.07570
Br1922     Br  0.22245586  0.72769931  0.52991837    -0.03030
C1923       C  0.88863787  0.51682985  0.99239528    -0.09670
C1924       C  0.89940524  0.50664274  0.52015119     0.06530
C1925       C  0.90904628  0.48582476  0.51532367    -0.03430
C1926       C  0.90809838  0.47570033  0.98288271    -0.07880
C1927       C  0.89741846  0.48580713  0.95480801     0.05640
C1928       C  0.88725410  0.50651548  0.95998961    -0.02910
Br1929     Br  0.87065571  0.52143782  0.92489307    -0.02600
H1930       H  0.88093039  0.53277095  0.99612471     0.09560
H1931       H  0.91603861  0.45984535  0.97962661     0.07570
Br1932     Br  0.92494459  0.47100809  0.55129539    -0.03030
C1933       C  0.91017147  0.48661725  0.75033325    -0.09670
C1934       C  0.89017209  0.48315809  0.76806724     0.06530
C1935       C  0.87067082  0.49259501  0.75490411    -0.03430
C1936       C  0.87145316  0.50503466  0.72417838    -0.07880
C1937       C  0.89164213  0.50889836  0.70709228     0.05640
C1938       C  0.91108436  0.49955810  0.72045735    -0.02910
Br1939     Br  0.93928358  0.50335889  0.69807836    -0.02600
H1940       H  0.92530654  0.47963700  0.76026023     0.09560
H1941       H  0.85636523  0.51188310  0.71385668     0.07570
Br1942     Br  0.84262052  0.48816052  0.77714161    -0.03030
C1943       C  0.09009034  0.51761842  0.98963556    -0.09670
C1944       C  0.08477942  0.50591783  0.51980727     0.06530
C1945       C  0.07837641  0.48375877  0.51726552    -0.03430
C1946       C  0.07728860  0.47376757  0.98466568    -0.07880
C1947       C  0.08265747  0.48544759  0.95436561     0.04680
C1948       C  0.08920646  0.50763805  0.95707296    -0.02910
Br1949     Br  0.09620616  0.52577417  0.91776848    -0.02600
H1950       H  0.09491872  0.53472229  0.99139682     0.09560
H1951       H  0.07220741  0.45673895  0.98305795     0.07570
Br1952     Br  0.06948691  0.46673661  0.55684892    -0.03030
C1953       C  0.10573294  0.47880401  0.74290742    -0.09670
C1954       C  0.09099959  0.48565311  0.76913180     0.06530
C1955       C  0.07805064  0.50465842  0.76373901    -0.03430
C1956       C  0.08024657  0.51655448  0.73301088    -0.07880
C1957       C  0.09478110  0.50974034  0.70652867     0.05640
C1958       C  0.10775687  0.49065919  0.71179045    -0.02910
Br1959     Br  0.12892249  0.48025229  0.67814743    -0.02600
H1960       H  0.11581813  0.46429420  0.74672663     0.09560
H1961       H  0.06966053  0.53070581  0.72918797     0.07570
Br1962     Br  0.05530176  0.51409209  0.79564980    -0.03030
C1963       C  0.12358600  0.60814211  0.57139627    -0.09670
C1964       C  0.12732612  0.58539581  0.56911521     0.06530
C1965       C  0.14325330  0.57758086  0.54494957    -0.03430
C1966       C  0.15508599  0.59239830  0.52422880    -0.07880
C1967       C  0.15149722  0.61518464  0.52657858     0.05640
C1968       C  0.13556296  0.62301219  0.55082500    -0.02910
Br1969     Br  0.12993214  0.65370005  0.55888545    -0.02600
H1970       H  0.11134276  0.61444799  0.58954533     0.09560
H1971       H  0.16723266  0.58596488  0.50603363     0.07570
Br1972     Br  0.14880434  0.54684780  0.53692771    -0.03030
C1973       C  0.98070046  0.55842516  0.63747932    -0.09670
C1974       C  0.96974005  0.54539167  0.61288259     0.06530
C1975       C  0.98236546  0.53298822  0.58886318    -0.03430
C1976       C  0.00532970  0.53306827  0.59067082    -0.07880
C1977       C  0.01637813  0.54553710  0.61578052     0.05640
C1978       C  0.00386820  0.55854154  0.63918171    -0.02910
Br1979     Br  0.01730019  0.57534027  0.67549769    -0.02600
H1980       H  0.97121858  0.56794962  0.65619064     0.09560
H1981       H  0.01465912  0.52335613  0.57198014     0.07570
Br1982     Br  0.96946257  0.51640534  0.55168162    -0.03030
C1983       C  0.72958537  0.85419684  0.90767700    -0.09670
C1984       C  0.75269336  0.85153629  0.90678556     0.06530
C1985       C  0.76340374  0.85043154  0.87408390    -0.03430
C1986       C  0.75095392  0.85102744  0.84368055    -0.07880
C1987       C  0.72776261  0.85250459  0.84458973     0.05640
C1988       C  0.71711824  0.85464562  0.87719262    -0.02910
Br1989     Br  0.68572076  0.85784839  0.88245106    -0.02600
H1990       H  0.72096288  0.85532572  0.93237301     0.09560
H1991       H  0.75958030  0.84950844  0.81903447     0.07570
Br1992     Br  0.79478659  0.84715254  0.86829466    -0.03030
C1993       C  0.76231930  0.84607360  0.62226916    -0.09670
C1994       C  0.74985407  0.84400866  0.59192377     0.06530
C1995       C  0.72673592  0.84211565  0.59442968    -0.03430
C1996       C  0.71659693  0.84188513  0.62711391    -0.07880
C1997       C  0.72910245  0.84369574  0.65751753     0.05640
C1998       C  0.75220055  0.84604395  0.65491109    -0.02910
Br1999     Br  0.77113511  0.84765994  0.69458431    -0.02600
H2000       H  0.78012433  0.84743464  0.62060581     0.09560
H2001       H  0.69883740  0.84006797  0.62876756     0.07570
Br2002     Br  0.70831362  0.83802905  0.55462668    -0.03030
C2003       C  0.76356923  0.64303098  0.87353938    -0.09670
C2004       C  0.75211175  0.64736589  0.90463552     0.06530
C2005       C  0.72895365  0.65057385  0.90329249    -0.03430
C2006       C  0.71808443  0.65005593  0.87133836    -0.07880
C2007       C  0.72965562  0.64650988  0.84006777     0.05640
C2008       C  0.75270844  0.64248777  0.84157912    -0.02910
Br2009     Br  0.77088807  0.63655957  0.80144217    -0.02600
H2010       H  0.78124580  0.64035043  0.87395782     0.09560
H2011       H  0.70049288  0.65323918  0.87092758     0.07570
Br2012     Br  0.71103295  0.65739742  0.94334868    -0.03030
C2013       C  0.76515994  0.65530438  0.61923415    -0.09670
C2014       C  0.75294851  0.65221181  0.58879780     0.06530
C2015       C  0.72988751  0.64945074  0.59115924    -0.03430
C2016       C  0.71951444  0.65022429  0.62364603    -0.07880
C2017       C  0.73175165  0.65349359  0.65397068     0.05640
C2018       C  0.75480940  0.65591484  0.65167363    -0.02910
Br2019     Br  0.77284087  0.66197851  0.69132902    -0.02600
H2020       H  0.78286385  0.65763284  0.61776842     0.09560
H2021       H  0.70174547  0.64844884  0.62520774     0.07570
Br2022     Br  0.71139504  0.64623740  0.55123184    -0.03030
C2023       C  0.84059866  0.62164891  0.56813556    -0.09670
C2024       C  0.83422567  0.61610797  0.53413962     0.06530
C2025       C  0.84082911  0.59568398  0.52019565    -0.03430
C2026       C  0.85310917  0.58108045  0.54043679    -0.07880
C2027       C  0.85920697  0.58651592  0.57452532     0.05640
C2028       C  0.85294822  0.60702707  0.58832990    -0.02910
Br2029     Br  0.85929620  0.61490342  0.63541958    -0.02600
H2030       H  0.83523719  0.63708965  0.57954514     0.09560
H2031       H  0.85829768  0.56551455  0.52924435     0.07570
Br2032     Br  0.83464551  0.58748985  0.97313821    -0.03030
C2033       C  0.79906468  0.73664870  0.96157786    -0.09670
C2034       C  0.79277425  0.72512008  0.99157936     0.06530
C2035       C  0.78690588  0.73695056  0.52182792    -0.03430
C2036       C  0.78633613  0.75980761  0.52121897    -0.07880
C2037       C  0.79175954  0.77141938  0.99101907     0.05640
C2038       C  0.79849271  0.75973601  0.96104704    -0.02910
Br2039     Br  0.80488199  0.77433800  0.91810126    -0.02600
H2040       H  0.80344455  0.72770530  0.93813705     0.09560
H2041       H  0.78152903  0.76861093  0.54461974     0.07570
Br2042     Br  0.78013131  0.72289495  0.56526068    -0.03030
C2043       C  0.90351312  0.97337880  0.74303643    -0.09670
C2044       C  0.89061427  0.98144174  0.71584248     0.06530
C2045       C  0.87861273  0.00116615  0.72087808    -0.03430
C2046       C  0.88022498  0.01270257  0.75233382    -0.07880
C2047       C  0.89354427  0.00483931  0.77919311     0.05640
C2048       C  0.90526890  0.98494708  0.77428867    -0.02910
Br2049     Br  0.92597705  0.97395280  0.80753732    -0.02600
H2050       H  0.91330495  0.95861173  0.73929130     0.09560
H2051       H  0.87103004  0.02785574  0.75583131     0.07570
Br2052     Br  0.85931393  0.01281873  0.68619964    -0.03030
C2053       C  0.88337727  0.00391463  0.98091319    -0.09670
C2054       C  0.90354419  0.00874465  0.96465324     0.06530
C2055       C  0.92349273  0.00305296  0.98087994    -0.03430
C2056       C  0.92298144  0.99246907  0.51287867    -0.07880
C2057       C  0.90285148  0.98794599  0.52944862     0.05640
C2058       C  0.88287297  0.99378718  0.51336113    -0.02910
Br2059     Br  0.85450962  0.98713080  0.53326849    -0.02600
H2060       H  0.86799251  0.00819841  0.96845838     0.09560
H2061       H  0.93838151  0.98778912  0.52493151     0.07570
Br2062     Br  0.95184191  0.00813274  0.95979178    -0.03030
C2063       C  0.85008012  0.91506811  0.54677881    -0.09670
C2064       C  0.85835051  0.90841160  0.57910772     0.06530
C2065       C  0.85319965  0.88727476  0.59142821    -0.03430
C2066       C  0.84013584  0.87323584  0.57131392    -0.07880
C2067       C  0.83178191  0.87997710  0.53905837     0.05640
C2068       C  0.83695898  0.90111016  0.52678521    -0.02910
Br2069     Br  0.82761170  0.91134667  0.98218574    -0.02600
H2070       H  0.85420276  0.93113811  0.53661420     0.09560
H2071       H  0.83581131  0.85723680  0.58154681     0.07570
Br2072     Br  0.86194001  0.87748102  0.63656061    -0.03030
C2073       C  0.08139813  0.00692880  0.52642692    -0.09670
C2074       C  0.08538754  0.98425999  0.52690542     0.06530
C2075       C  0.09089506  0.97319568  0.49584053    -0.03430
C2076       C  0.09169162  0.98481471  0.96473256    -0.07880
C2077       C  0.08691066  0.00737902  0.96391515     0.05640
C2078       C  0.08197010  0.01856006  0.49526906    -0.02910
Br2079     Br  0.07673978  0.04969330  0.49788368    -0.02600
H2080       H  0.07753466  0.01558481  0.55037002     0.09560
H2081       H  0.09580109  0.97606948  0.94098342     0.07570
Br2082     Br  0.09871225  0.94257150  0.99451352    -0.03030
C2083       C  0.10325348  0.97138506  0.74248746    -0.09670
C2084       C  0.09649189  0.98213276  0.71217710     0.06530
C2085       C  0.09100592  0.00474862  0.71428864    -0.03430
C2086       C  0.09233672  0.01595147  0.74595155    -0.07880
C2087       C  0.09860653  0.00520383  0.77647625     0.05640
C2088       C  0.10443079  0.98263488  0.77438233    -0.02910
Br2089     Br  0.11424996  0.96605800  0.81370798    -0.02600
H2090       H  0.10754134  0.95409660  0.74143136     0.09560
H2091       H  0.08738603  0.03306779  0.74690847     0.07570
Br2092     Br  0.07926904  0.02115637  0.67602676    -0.03030
C2093       C  0.11978300  0.88535018  0.56285109    -0.09670
C2094       C  0.12639829  0.90712825  0.56911685     0.06530
C2095       C  0.14436922  0.91552401  0.54953433    -0.03430
C2096       C  0.15509199  0.90225846  0.52477123    -0.07880
C2097       C  0.14857428  0.88045144  0.51857295     0.05640
C2098       C  0.13063171  0.87201669  0.53819074    -0.02910
Br2099     Br  0.12015613  0.84238018  0.53375732    -0.02600
H2100       H  0.10591574  0.87859837  0.57713599     0.09560
H2101       H  0.16890320  0.90909832  0.51046000     0.07570
Br2102     Br  0.15498922  0.94514470  0.55377347    -0.03030
C2103       C  0.00531993  0.92903028  0.60809008    -0.09670
C2104       C  0.01655585  0.94298102  0.63093800     0.06530
C2105       C  0.00439484  0.95669186  0.65355565    -0.03430
C2106       C  0.98135657  0.95681260  0.65235199    -0.07880
C2107       C  0.96999212  0.94352488  0.62861721     0.05640
C2108       C  0.98219523  0.92937956  0.60643415    -0.02910
Br2109     Br  0.96857201  0.91225755  0.57060673    -0.02600
H2110       H  0.01459368  0.91881095  0.59002937     0.09560
H2111       H  0.97227864  0.96768181  0.66968438     0.07570
Br2112     Br  0.01855780  0.97548291  0.68669366    -0.03030
loop_ 
_geom_bond_atom_site_label_1 
_geom_bond_atom_site_label_2 
_geom_bond_distance 
_geom_bond_site_symmetry_2 
_ccdc_geom_bond_type 
In1           O3   2.288       .  S
In1           O4   2.222       .  S
In1          O12   2.248       .  S
In1           O6   2.262       .  S
In1           O8   2.265       .  S
In1           O9   2.236       .  S
In1          O10   2.228       .  S
In1          O13   2.228       .  S
C2            O8   1.263       .  A
C2           O10   1.258       .  A
C2         C1048   1.471       .  S
O3           C11   1.266       .  A
O4           C11   1.255       .  A
C5           O12   1.259       .  A
C5            O6   1.262       .  A
C5         C1038   1.493       .  S
C7            O9   1.260       .  A
C7           O13   1.258       .  A
C7         C1018   1.464       .  S
C11        C1028   1.489       .  S
In14         O16   2.228       .  S
In14         O17   2.230       .  S
In14         O25   2.231       .  S
In14         O19   2.274       .  S
In14         O21   2.260       .  S
In14         O22   2.235       .  S
In14         O23   2.231       .  S
In14         O26   2.259       .  S
C15          O21   1.264       .  A
C15          O23   1.260       .  A
C15        C1051   1.479       .  S
O16          C24   1.260       .  A
O17          C24   1.260       .  A
C18          O25   1.255       .  A
C18          O19   1.263       .  A
C18        C1008   1.479       .  S
C20          O22   1.257       .  A
C20          O26   1.263       .  A
C20         C988   1.479       .  S
C24        C1001   1.462       .  S
In27         O29   2.263       .  S
In27         O30   2.232       .  S
In27         O38   2.261       .  S
In27         O34   2.274       .  S
In27         O36   2.210       .  S
In27       O1088   2.247       .  S
In27       O1091   2.244       .  S
In27       O1095   2.213       .  S
C28          O34   1.264       .  A
C28          O36   1.256       .  A
C28         C978   1.472       .  S
O29          C37   1.266       .  A
O30          C37   1.258       .  A
C31          O32   1.258       .  A
C31        O1094   1.261   1_554  A
C31         C968   1.480       .  S
O32       In1083   2.247   1_554  S
C33          O35   1.262       .  A
C33          O39   1.258       .  A
C33         C958   1.469       .  S
O35       In1083   2.244   1_554  S
C37         C948   1.489       .  S
O38        C1087   1.261       .  A
O39       In1083   2.213   1_554  S
In40         O47   2.269       .  S
In40         O48   2.240       .  S
In40         O49   2.219       .  S
In40         O52   2.251       .  S
In40       O1098   2.215       .  S
In40       O1099   2.244       .  S
In40       O1107   2.256       .  S
In40       O1101   2.245       .  S
C41          O47   1.262       .  A
C41          O49   1.257       .  A
C41         C981   1.473       .  S
O42       In1096   2.215   1_554  S
O42          C50   1.259       .  A
O43       In1096   2.244   1_554  S
O43          C50   1.263       .  A
C44          O51   1.261       .  A
C44          O45   1.258       .  A
C44        C1011   1.479       .  S
O45       In1096   2.245   1_554  S
C46          O48   1.261       .  A
C46          O52   1.263       .  A
C46         C928   1.490       .  S
C50         C938   1.468       .  S
O51       In1096   2.256   1_554  S
In53         O55   2.216       .  S
In53         O56   2.236       .  S
In53         O64   2.249       .  S
In53         O58   2.262       .  S
In53         O60   2.273       .  S
In53         O61   2.250       .  S
In53         O62   2.222       .  S
In53         O65   2.251       .  S
C54          O60   1.264       .  A
C54          O62   1.257       .  A
C54         C921   1.480       .  S
O55          C63   1.260       .  A
O56          C63   1.263       .  A
C57          O64   1.260       .  A
C57          O58   1.261       .  A
C57         C908   1.488       .  S
C59          O61   1.258       .  A
C59          O65   1.263       .  A
C59         C901   1.485       .  S
C63         C888   1.465       .  S
In66         O68   2.256       .  S
In66         O69   2.266       .  S
In66         O77   2.239       .  S
In66         O71   2.267       .  S
In66         O73   2.270       .  S
In66         O74   2.236       .  S
In66         O75   2.225       .  S
In66         O78   2.228       .  S
C67          O73   1.264       .  A
C67          O75   1.258       .  A
C67         C918   1.478       .  S
O68          C76   1.259       .  A
O69          C76   1.258       .  A
C70          O77   1.258       .  A
C70          O71   1.263       .  A
C70         C971   1.476       .  S
C72          O74   1.264       .  A
C72          O78   1.260       .  A
C72         C868   1.466       .  S
C76         C881   1.477       .  S
In79         O86   2.276       .  S
In79         O87   2.238       .  S
In79         O88   2.209       .  S
In79         O91   2.265       .  S
In79       O1137   2.220       .  S
In79       O1138   2.239       .  S
In79       O1146   2.252       .  S
In79       O1140   2.258       .  S
C80          O86   1.266       .  A
C80          O88   1.258       .  A
C80         C858   1.482       .  S
O81       In1135   2.220   1_554  S
O81          C89   1.258       .  A
O82       In1135   2.239   1_554  S
O82          C89   1.263       .  A
C83          O90   1.261   1_554  A
C83          O84   1.261       .  A
C83         C911   1.492       .  S
O84       In1135   2.258   1_554  S
C85          O87   1.260       .  A
C85          O91   1.264       .  A
C85         C841   1.493       .  S
C89         C848   1.474       .  S
O90       In1135   2.252       .  S
In92         O94   2.250       .  S
In92         O95   2.257       .  S
In92        O103   2.272       .  S
In92         O97   2.230       .  S
In92         O99   2.239       .  S
In92        O100   2.280       .  S
In92        O104   2.210       .  S
In92       O1157   2.213       .  S
C93         O101   1.260       .  A
C93        O1155   1.263   1_554  A
C93         C828   1.467       .  S
O94         C102   1.261       .  A
O95         C102   1.260       .  A
C96         O103   1.265       .  A
C96          O97   1.258       .  A
C96         C818   1.491       .  S
C98         O100   1.265       .  A
C98         O104   1.258       .  A
C98         C861   1.482       .  S
O99        C1149   1.263       .  A
O101      In1148   2.213   1_554  S
C102       C2097   1.494       .  S
In105       O116   2.240       .  S
In105       O110   2.256       .  S
In105       O112   2.273       .  S
In105       O113   2.234       .  S
In105       O114   2.213       .  S
In105       O117   2.208       .  S
In105      O1163   2.257       .  S
In105      O1164   2.227       .  S
C106        O112   1.264       .  A
C106        O114   1.256       .  A
C106        C808   1.471       .  S
O107      In1161   2.257   1_554  S
O107        C115   1.265       .  A
O108      In1161   2.227   1_554  S
O108        C115   1.257       .  A
C109        O116   1.260       .  A
C109        O110   1.261       .  A
C109        C798   1.490       .  S
C111        O113   1.264       .  A
C111        O117   1.259       .  A
C111        C788   1.468       .  S
C115        C781   1.485       .  S
In118       O120   2.212       .  S
In118       O121   2.248       .  S
In118       O129   2.264       .  S
In118       O123   2.245       .  S
In118       O125   2.266       .  S
In118       O127   2.226       .  S
In118      O1182   2.249       .  S
In118      O1186   2.253       .  S
C119        O125   1.262       .  A
C119        O127   1.257       .  A
C119        C811   1.472       .  S
O120        C128   1.258       .  A
O121        C128   1.264       .  A
C122        O129   1.262       .  A
C122        O123   1.258       .  A
C122        C771   1.481       .  S
C124        O126   1.262       .  A
C124        O130   1.263       .  A
C124        C748   1.491       .  S
O126      In1174   2.249   1_554  S
C128        C758   1.467       .  S
O130      In1174   2.253   1_554  S
In131       O133   2.261       .  S
In131       O134   2.246       .  S
In131       O142   2.243       .  S
In131       O136   2.256       .  S
In131       O138   2.273       .  S
In131       O139   2.236       .  S
In131       O140   2.203       .  S
In131       O143   2.224       .  S
C132        O138   1.264       .  A
C132        O140   1.259       .  A
C132        C738   1.484       .  S
O133        C141   1.265       .  A
O134        C141   1.258       .  A
C135        O142   1.259       .  A
C135        O136   1.261       .  A
C135        C801   1.491       .  S
C137        O139   1.263       .  A
C137        O143   1.259       .  A
C137       C1021   1.471       .  S
C141       C1031   1.491       .  S
In144       O146   2.219       .  S
In144       O147   2.235       .  S
In144       O155   2.228       .  S
In144       O149   2.266       .  S
In144       O151   2.281       .  S
In144       O152   2.224       .  S
In144       O153   2.191       .  S
In144       O156   2.264       .  S
C145        O151   1.269       .  A
C145        O153   1.255       .  A
C145        C741   1.484       .  S
O146        C154   1.259       .  A
O147        C154   1.263       .  A
C148        O155   1.258       .  A
C148        O149   1.265       .  A
C148        C731   1.490       .  S
C150        O152   1.258       .  A
C150        O156   1.265       .  A
C150        C991   1.478       .  S
C154        C998   1.462       .  S
In157       O159   2.228       .  S
In157       O160   2.218       .  S
In157       O168   2.238       .  S
In157       O162   2.271       .  S
In157       O164   2.274       .  S
In157       O165   2.219       .  S
In157       O166   2.228       .  S
In157       O169   2.286       .  S
C158        O164   1.263       .  A
C158        O166   1.256       .  A
C158        C718   1.469       .  S
O159        C167   1.264       .  A
O160        C167   1.262       .  A
C161        O168   1.257       .  A
C161        O162   1.263       .  A
C161        C768   1.478       .  S
C163        O165   1.254       .  A
C163        O169   1.263       .  A
C163        C898   1.480       .  S
C167        C891   1.471       .  S
In170       O172   2.252       .  S
In170       O173   2.267       .  S
In170       O181   2.263       .  S
In170       O175   2.256       .  S
In170       O177   2.259       .  S
In170       O178   2.252       .  S
In170       O179   2.232       .  S
In170       O182   2.213       .  S
C171        O177   1.264       .  A
C171        O179   1.259       .  A
C171        C721   1.470       .  S
O172        C180   1.261       .  A
O173        C180   1.261       .  A
C174        O181   1.260       .  A
C174        O175   1.258       .  A
C174        C711   1.490       .  S
C176        O178   1.263       .  A
C176        O182   1.259       .  A
C176        C871   1.478       .  S
C180        C878   1.480       .  S
In183       O185   2.221       .  S
In183       O186   2.243       .  S
In183       O194   2.251       .  S
In183       O188   2.255       .  S
In183       O190   2.272       .  S
In183       O192   2.222       .  S
In183      O1247   2.245       .  S
In183      O1251   2.263       .  S
C184        O190   1.262       .  A
C184        O192   1.258       .  A
C184        C698   1.478       .  S
O185        C193   1.259       .  A
O186        C193   1.263       .  A
C187        O194   1.261       .  A
C187        O188   1.258       .  A
C187        C728   1.491       .  S
C189        O191   1.258       .  A
C189        O195   1.264       .  A
C189        C678   1.489       .  S
O191      In1239   2.245   1_554  S
C193        C688   1.471       .  S
O195      In1239   2.263   1_554  S
In196       O207   2.243       .  S
In196       O201   2.269       .  S
In196       O203   2.281       .  S
In196       O204   2.228       .  S
In196       O208   2.217       .  S
In196      O1254   2.270       .  S
In196      O1255   2.229       .  S
In196      O1261   2.214       .  S
C197        O205   1.256       .  A
C197       O1259   1.265   1_556  A
C197       C1757   1.474       .  S
O198      In1252   2.270   1_554  S
O198        C206   1.264       .  A
O199      In1252   2.229   1_554  S
O199        C206   1.255       .  A
C200        O207   1.259       .  A
C200        O201   1.263       .  A
C200        C708   1.487       .  S
C202        O204   1.264       .  A
C202        O208   1.260       .  A
C202        C668   1.472       .  S
O203       C1253   1.265       .  A
O205      In1252   2.214       .  S
C206        C658   1.488       .  S
In209       O211   2.259       .  S
In209       O212   2.223       .  S
In209       O220   2.231       .  S
In209       O214   2.250       .  S
In209       O216   2.272       .  S
In209       O217   2.222       .  S
In209       O218   2.210       .  S
In209       O221   2.225       .  S
C210        O216   1.264       .  A
C210        O218   1.256       .  A
C210        C648   1.474       .  S
O211        C219   1.264       .  A
O212        C219   1.255       .  A
C213        O220   1.258       .  A
C213        O214   1.262       .  A
C213        C641   1.476       .  S
C215        O217   1.262       .  A
C215        O221   1.261       .  A
C215        C791   1.466       .  S
C219        C778   1.484       .  S
In222       O224   2.219       .  S
In222       O225   2.240       .  S
In222       O233   2.244       .  S
In222       O227   2.248       .  S
In222       O229   2.272       .  S
In222       O230   2.233       .  S
In222       O231   2.208       .  S
In222       O234   2.277       .  S
C223        O229   1.264       .  A
C223        O231   1.258       .  A
C223        C651   1.477       .  S
O224        C232   1.259       .  A
O225        C232   1.263       .  A
C226        O233   1.262       .  A
C226        O227   1.260       .  A
C226        C628   1.488       .  S
C228        O230   1.258       .  A
C228        O234   1.264       .  A
C228        C751   1.491       .  S
C232        C761   1.469       .  S
In235       O237   2.230       .  S
In235       O238   2.235       .  S
In235       O246   2.238       .  S
In235       O240   2.262       .  S
In235       O242   2.283       .  S
In235       O243   2.228       .  S
In235       O244   2.206       .  S
In235       O247   2.278       .  S
C236        O242   1.266       .  A
C236        O244   1.255       .  A
C236        C621   1.487       .  S
O237        C245   1.260       .  A
O238        C245   1.262       .  A
C239        O246   1.260       .  A
C239        O240   1.262       .  A
C239        C608   1.487       .  S
C241        O243   1.256       .  A
C241        O247   1.265       .  A
C241        C681   1.487       .  S
C245        C691   1.470       .  S
In248       O250   2.266       .  S
In248       O251   2.233       .  S
In248       O259   2.238       .  S
In248       O253   2.262       .  S
In248       O255   2.282       .  S
In248       O256   2.221       .  S
In248       O257   2.214       .  S
In248       O260   2.229       .  S
C249        O255   1.263       .  A
C249        O257   1.257       .  A
C249        C618   1.487       .  S
O250        C258   1.264       .  A
O251        C258   1.255       .  A
C252        O259   1.258       .  A
C252        O253   1.263       .  A
C252        C598   1.480       .  S
C254        O256   1.262       .  A
C254        O260   1.261       .  A
C254        C671   1.465       .  S
C258        C661   1.489       .  S
In261       O263   2.233       .  S
In261       O264   2.249       .  S
In261       O272   2.247       .  S
In261       O266   2.236       .  S
In261       O268   2.252       .  S
In261       O269   2.241       .  S
In261       O270   2.215       .  S
In261       O273   2.219       .  S
C262        O268   1.263       .  A
C262        O270   1.262       .  A
C262        C591   1.479       .  S
O263        C271   1.261       .  A
O264        C271   1.260       .  A
C265        O272   1.261       .  A
C265        O266   1.257       .  A
C265        C638   1.482       .  S
C267        O269   1.263       .  A
C267        O273   1.258       .  A
C267        C578   1.473       .  S
C271        C568   1.471       .  S
In274       O276   2.219       .  S
In274       O277   2.232       .  S
In274       O285   2.236       .  S
In274       O279   2.256       .  S
In274       O281   2.275       .  S
In274       O282   2.223       .  S
In274       O283   2.204       .  S
In274       O286   2.273       .  S
C275        O281   1.266       .  A
C275        O283   1.255       .  A
C275        C588   1.477       .  S
O276        C284   1.259       .  A
O277        C284   1.262       .  A
C278        O285   1.260       .  A
C278        O279   1.263       .  A
C278        C611   1.489       .  S
C280        O282   1.257       .  A
C280        O286   1.265       .  A
C280        C548   1.480       .  S
C284        C558   1.453       .  S
In287       O289   2.252       .  S
In287       O290   2.249       .  S
In287       O298   2.259       .  S
In287       O292   2.244       .  S
In287       O294   2.264       .  S
In287       O295   2.250       .  S
In287       O296   2.213       .  S
In287       O299   2.210       .  S
C288        O294   1.264       .  A
C288        O296   1.258       .  A
C288        C541   1.472       .  S
O289        C297   1.262       .  A
O290        C297   1.261       .  A
C291        O298   1.261       .  A
C291        O292   1.258       .  A
C291        C601   1.481       .  S
C293        O295   1.265       .  A
C293        O299   1.256       .  A
C293        C528   1.477       .  S
C297        C521   1.488       .  S
In300       O302   2.219       .  S
In300       O303   2.234       .  S
In300       O311   2.232       .  S
In300       O305   2.256       .  S
In300       O307   2.268       .  S
In300       O308   2.247       .  S
In300       O309   2.206       .  S
In300       O312   2.240       .  S
C301        O307   1.265       .  A
C301        O309   1.257       .  A
C301        C538   1.469       .  S
O302        C310   1.259       .  A
O303        C310   1.264       .  A
C304        O311   1.259       .  A
C304        O305   1.263       .  A
C304        C631   1.485       .  S
C306        O308   1.260       .  A
C306        O312   1.262       .  A
C306        C498   1.477       .  S
C310        C508   1.463       .  S
In313       O315   2.270       .  S
In313       O316   2.228       .  S
In313       O324   2.241       .  S
In313       O318   2.256       .  S
In313       O320   2.275       .  S
In313       O321   2.232       .  S
In313       O322   2.209       .  S
In313       O325   2.225       .  S
C314        O320   1.265       .  A
C314        O322   1.256       .  A
C314        C488   1.480       .  S
O315        C323   1.266       .  A
O316        C323   1.256       .  A
C317        O324   1.259       .  A
C317        O318   1.262       .  A
C317        C481   1.488       .  S
C319        O321   1.261       .  A
C319        O325   1.260       .  A
C319        C961   1.466       .  S
C323        C951   1.491       .  S
In326       O328   2.225       .  S
In326       O329   2.228       .  S
In326       O337   2.236       .  S
In326       O331   2.259       .  S
In326       O333   2.274       .  S
In326       O334   2.232       .  S
In326       O335   2.214       .  S
In326       O338   2.271       .  S
C327        O333   1.263       .  A
C327        O335   1.258       .  A
C327        C491   1.479       .  S
O328        C336   1.262       .  A
O329        C336   1.263       .  A
C330        O337   1.259       .  A
C330        O331   1.262       .  A
C330        C471   1.477       .  S
C332        O334   1.257       .  A
C332        O338   1.262       .  A
C332        C931   1.489       .  S
C336        C941   1.470       .  S
In339       O341   2.265       .  S
In339       O342   2.220       .  S
In339       O350   2.229       .  S
In339       O344   2.249       .  S
In339       O346   2.278       .  S
In339       O347   2.237       .  S
In339       O348   2.208       .  S
In339       O351   2.218       .  S
C340        O346   1.264       .  A
C340        O348   1.255       .  A
C340        C461   1.471       .  S
O341        C349   1.262       .  A
O342        C349   1.257       .  A
C343        O350   1.259       .  A
C343        O344   1.263       .  A
C343        C448   1.486       .  S
C345        O347   1.263       .  A
C345        O351   1.260       .  A
C345        C581   1.455       .  S
C349       C1627   1.469       .  S
In352       O354   2.210       .  S
In352       O355   2.239       .  S
In352       O363   2.250       .  S
In352       O357   2.246       .  S
In352       O359   2.263       .  S
In352       O360   2.245       .  S
In352       O361   2.211       .  S
In352       O364   2.244       .  S
C353        O359   1.264       .  A
C353        O361   1.259       .  A
C353        C458   1.470       .  S
O354        C362   1.260       .  A
O355        C362   1.263       .  A
C356        O363   1.260       .  A
C356        O357   1.259       .  A
C356        C468   1.482       .  S
C358        O360   1.260       .  A
C358        O364   1.263       .  A
C358        C551   1.480       .  S
C362        C561   1.475       .  S
In365       O367   2.226       .  S
In365       O368   2.225       .  S
In365       O376   2.237       .  S
In365       O370   2.260       .  S
In365       O372   2.277       .  S
In365       O373   2.225       .  S
In365       O374   2.213       .  S
In365       O377   2.277       .  S
C366        O372   1.263       .  A
C366        O374   1.257       .  A
C366        C438   1.485       .  S
O367        C375   1.260       .  A
O368        C375   1.263       .  A
C369        O376   1.259       .  A
C369        O370   1.264       .  A
C369        C428   1.481       .  S
C371        O373   1.255       .  A
C371        O377   1.263       .  A
C371        C501   1.474       .  S
C375        C511   1.474       .  S
In378       O380   2.274       .  S
In378       O381   2.232       .  S
In378       O389   2.240       .  S
In378       O383   2.253       .  S
In378       O385   2.278       .  S
In378       O386   2.230       .  S
In378       O387   2.214       .  S
In378       O390   2.234       .  S
C379        O385   1.264       .  A
C379        O387   1.255       .  A
C379        C441   1.477       .  S
O380        C388   1.264       .  A
O381        C388   1.258       .  A
C382        O389   1.262       .  A
C382        O383   1.262       .  A
C382        C478   1.484       .  S
C384        O386   1.262       .  A
C384        O390   1.260       .  A
C384        C531   1.460       .  S
C388        C518   1.484       .  S
In391       O393   2.225       .  S
In391       O394   2.241       .  S
In391       O402   2.254       .  S
In391       O396   2.245       .  S
In391       O398   2.276       .  S
In391       O399   2.237       .  S
In391       O400   2.211       .  S
In391       O403   2.262       .  S
C392        O398   1.264       .  A
C392        O400   1.257       .  A
C392        C418   1.483       .  S
O393        C401   1.258       .  A
O394        C401   1.262       .  A
C395        O402   1.262       .  A
C395        O396   1.260       .  A
C395        C431   1.479       .  S
C397        O399   1.261       .  A
C397        O403   1.265       .  A
C397        C838   1.489       .  S
C401        C851   1.465       .  S
In404       O406   2.261       .  S
In404       O407   2.239       .  S
In404       O415   2.239       .  S
In404       O409   2.248       .  S
In404       O411   2.270       .  S
In404       O412   2.229       .  S
In404       O413   2.214       .  S
In404       O416   2.225       .  S
C405        O411   1.264       .  A
C405        O413   1.256       .  A
C405        C421   1.481       .  S
O406        C414   1.263       .  A
O407        C414   1.259       .  A
C408        O415   1.261       .  A
C408        O409   1.260       .  A
C408        C451   1.485       .  S
C410        O412   1.262       .  A
C410        O416   1.260       .  A
C410        C831   1.466       .  S
C414        C821   1.491       .  S
C417        C418   1.404       .  A
C417        C422   1.392       .  A
C417        H424   1.083       .  S
C418        C419   1.413       .  A
C419        C420   1.405       .  A
C419       Br426   1.919       .  S
C420        C421   1.407       .  A
C420        H425   1.083       .  S
C421        C422   1.413       .  A
C422       Br423   1.924       .  S
C427        C428   1.407       .  A
C427        C432   1.401       .  A
C427        H434   1.084       .  S
C428        C429   1.408       .  A
C429        C430   1.402       .  A
C429       Br436   1.919       .  S
C430        C431   1.407       .  A
C430        H435   1.083       .  S
C431        C432   1.407       .  A
C432       Br433   1.919       .  S
C437        C438   1.405       .  A
C437        C442   1.392       .  A
C437        H444   1.083       .  S
C438        C439   1.415       .  A
C439        C440   1.406       .  A
C439       Br446   1.919       .  S
C440        C441   1.405       .  A
C440        H445   1.083       .  S
C441        C442   1.411       .  A
C442       Br443   1.924       .  S
C447        C448   1.407       .  A
C447        C452   1.401       .  A
C447        H454   1.083       .  S
C448        C449   1.415       .  A
C449        C450   1.398       .  A
C449       Br456   1.923       .  S
C450        C451   1.405       .  A
C450        H455   1.083       .  S
C451        C452   1.413       .  A
C452       Br453   1.920       .  S
C457        C458   1.405       .  A
C457        C462   1.405       .  A
C457        H464   1.083       .  S
C458        C459   1.408       .  A
C459        C460   1.391       .  A
C459       Br466   1.923       .  S
C460        C461   1.401       .  A
C460        H465   1.084       .  S
C461        C462   1.409       .  A
C462       Br463   1.917       .  S
C467        C468   1.409       .  A
C467        C472   1.402       .  A
C467        H474   1.083       .  S
C468        C469   1.409       .  A
C469        C470   1.399       .  A
C469       Br476   1.920       .  S
C470        C471   1.406       .  A
C470        H475   1.083       .  S
C471        C472   1.406       .  A
C472       Br473   1.918       .  S
C477        C478   1.405       .  A
C477        C482   1.399       .  A
C477        H484   1.083       .  S
C478        C479   1.410       .  A
C479        C480   1.403       .  A
C479       Br486   1.919       .  S
C480        C481   1.409       .  A
C480        H485   1.083       .  S
C481        C482   1.413       .  A
C482       Br483   1.921       .  S
C487        C488   1.407       .  A
C487        C492   1.406       .  A
C487        H494   1.083       .  S
C488        C489   1.413       .  A
C489        C490   1.391       .  A
C489       Br496   1.926       .  S
C490        C491   1.402       .  A
C490        H495   1.084       .  S
C491        C492   1.412       .  A
C492       Br493   1.918       .  S
C497        C498   1.407       .  A
C497       C1558   1.405       .  A
C497        H504   1.083       .  S
C498        C499   1.411       .  A
C499       C1556   1.395       .  A
C499       Br506   1.923       .  S
C500        C501   1.402       .  A
C500       C1555   1.395   1_554  A
C500        H505   1.084       .  S
C501        C502   1.407       .  A
C502       C1553   1.405   1_554  A
C502       Br503   1.916       .  S
C507        C508   1.399       .  A
C507        C512   1.396       .  A
C507        H514   1.084       .  S
C508        C509   1.407       .  A
C509        C510   1.393       .  A
C509       Br516   1.921       .  S
C510        C511   1.405       .  A
C510        H515   1.083       .  S
C511        C512   1.415       .  A
C512       Br513   1.922       .  S
C517        C518   1.405       .  A
C517       C1578   1.399   1_554  A
C517        H524   1.084       .  S
C518       C1575   1.409   1_554  A
C519        C520   1.404       .  A
C519       C1574   1.409       .  A
C519       Br526   1.918       .  S
C520        C521   1.409       .  A
C520        H525   1.083       .  S
C521        C522   1.414       .  A
C522       C1573   1.399       .  A
C522      Br1579   1.922       .  S
Br523      C1578   1.922       .  S
C527        C528   1.406       .  A
C527        C532   1.396       .  A
C527        H534   1.083       .  S
C528        C529   1.418       .  A
C529        C530   1.394       .  A
C529       Br536   1.924       .  S
C530        C531   1.396       .  A
C530        H535   1.084       .  S
C531        C532   1.404       .  A
C532       Br533   1.916       .  S
C537        C538   1.404       .  A
C537        C542   1.404       .  A
C537        H544   1.083       .  S
C538        C539   1.408       .  A
C539        C540   1.391       .  A
C539       Br546   1.924       .  S
C540        C541   1.401       .  A
C540        H545   1.084       .  S
C541        C542   1.410       .  A
C542       Br543   1.917       .  S
C547        C548   1.404   1_565  A
C547       C1608   1.396       .  A
C547        H554   1.084       .  S
C548        C549   1.409       .  A
C549       C1606   1.405   1_545  A
C549       Br556   1.918       .  S
C550        C551   1.407       .  A
C550       C1605   1.405   1_564  A
C550        H555   1.083   1_565  S
C551        C552   1.411   1_554  A
C552       C1603   1.396       .  A
C552       Br553   1.923       .  S
C557        C558   1.397       .  A
C557        C562   1.397   1_545  A
C557        H564   1.084       .  S
C558        C559   1.400   1_545  A
C559        C560   1.391       .  A
C559       Br566   1.919       .  S
C560        C561   1.408       .  A
C560        H565   1.083       .  S
C561        C562   1.415       .  A
C562       Br563   1.920   1_565  S
C567        C568   1.406   1_565  A
C567        C572   1.405       .  A
C567        H574   1.083       .  S
C568        C569   1.409       .  A
C569        C570   1.392   1_545  A
C569       Br576   1.922       .  S
C570        C571   1.399       .  A
C570        H575   1.084       .  S
C571       C1405   1.469       .  S
C571        C572   1.408       .  A
C572       Br573   1.917       .  S
C577        C578   1.406   1_565  A
C577        C582   1.396       .  A
C577        H584   1.083       .  S
C578        C579   1.415       .  A
C579        C580   1.395   1_545  A
C579       Br586   1.923       .  S
C580        C581   1.397       .  A
C580        H585   1.084       .  S
C581        C582   1.401       .  A
C582       Br583   1.918       .  S
C587        C588   1.404       .  A
C587        C592   1.403       .  A
C587        H594   1.083       .  S
C588        C589   1.412       .  A
C589        C590   1.391       .  A
C589       Br596   1.924   1_545  S
C590        C591   1.402       .  A
C590        H595   1.084       .  S
C591        C592   1.414       .  A
C592       Br593   1.919       .  S
C597        C598   1.407       .  A
C597        C602   1.400       .  A
C597        H604   1.083       .  S
C598        C599   1.407       .  A
C599        C600   1.402       .  A
C599       Br606   1.919       .  S
C600        C601   1.408       .  A
C600        H605   1.083       .  S
C601        C602   1.408       .  A
C602       Br603   1.919       .  S
C607        C608   1.406       .  A
C607        C612   1.399       .  A
C607        H614   1.083       .  S
C608        C609   1.411       .  A
C609        C610   1.404       .  A
C609       Br616   1.919       .  S
C610        C611   1.409       .  A
C610        H615   1.083       .  S
C611        C612   1.414       .  A
C612       Br613   1.922       .  S
C617        C618   1.403       .  A
C617        C622   1.392       .  A
C617        H624   1.083       .  S
C618        C619   1.414       .  A
C619        C620   1.408       .  A
C619       Br626   1.918       .  S
C620        C621   1.408       .  A
C620        H625   1.083       .  S
C621        C622   1.416       .  A
C622       Br623   1.926       .  S
C627        C628   1.404       .  A
C627        C632   1.398       .  A
C627        H634   1.083       .  S
C628        C629   1.417       .  A
C629        C630   1.403       .  A
C629       Br636   1.921       .  S
C630        C631   1.404       .  A
C630        H635   1.083       .  S
C631        C632   1.416       .  A
C632       Br633   1.923       .  S
C637        C638   1.403       .  A
C637        C642   1.397       .  A
C637        H644   1.084       .  S
C638        C639   1.417       .  A
C639        C640   1.400       .  A
C639       Br646   1.922       .  S
C640        C641   1.401       .  A
C640        H645   1.084       .  S
C641        C642   1.413       .  A
C642       Br643   1.923       .  S
C647        C648   1.405       .  A
C647        C652   1.405       .  A
C647        H654   1.083       .  S
C648        C649   1.410       .  A
C649        C650   1.391       .  A
C649       Br656   1.925       .  S
C650        C651   1.403       .  A
C650        H655   1.084       .  S
C651        C652   1.411       .  A
C652       Br653   1.918       .  S
C657        C658   1.403       .  A
C657        C662   1.402       .  A
C657        H664   1.083       .  S
C658        C659   1.417       .  A
C659        C660   1.399       .  A
C659       Br666   1.923       .  S
C660        C661   1.403       .  A
C660        H665   1.083       .  S
C661        C662   1.419       .  A
C662       Br663   1.923       .  S
C667        C668   1.404       .  A
C667        C672   1.394       .  A
C667        H674   1.083       .  S
C668        C669   1.414       .  A
C669        C670   1.394       .  A
C669       Br676   1.923       .  S
C670        C671   1.400       .  A
C670        H675   1.084       .  S
C671        C672   1.408       .  A
C672       Br673   1.921       .  S
C677        C678   1.403       .  A
C677        C682   1.399       .  A
C677        H684   1.083       .  S
C678        C679   1.417       .  A
C679        C680   1.405       .  A
C679       Br686   1.921       .  S
C680        C681   1.404       .  A
C680        H685   1.083       .  S
C681        C682   1.416       .  A
C682       Br683   1.923       .  S
C687        C688   1.403       .  A
C687        C692   1.397       .  A
C687        H694   1.083       .  S
C688        C689   1.412       .  A
C689        C690   1.395       .  A
C689       Br696   1.922       .  S
C690        C691   1.401       .  A
C690        H695   1.084       .  S
C691        C692   1.410       .  A
C692       Br693   1.921       .  S
C697        C698   1.402       .  A
C697        C702   1.392       .  A
C697        H704   1.084       .  S
C698       C1755   1.413       .  A
C699        C700   1.407       .  A
C699       C1754   1.413   1_554  A
C699       Br706   1.918       .  S
C700       C1757   1.404   1_554  A
C700        H705   1.083       .  S
C701       C1253   1.474       .  S
C701        C702   1.409       .  A
C701       C1756   1.404       .  A
C702       Br703   1.923       .  S
C707        C708   1.407       .  A
C707        C712   1.402       .  A
C707        H714   1.083       .  S
C708        C709   1.409       .  A
C709        C710   1.404       .  A
C709       Br716   1.919       .  S
C710        C711   1.410       .  A
C710        H715   1.083       .  S
C711        C712   1.411       .  A
C712       Br713   1.920       .  S
C717        C718   1.403       .  A
C717        C722   1.404   1_455  A
C717        H724   1.083       .  S
C718        C719   1.407       .  A
C719        C720   1.396   1_455  A
C719       Br726   1.920       .  S
C720        C721   1.401       .  A
C720        H725   1.084       .  S
C721        C722   1.408       .  A
C722       Br723   1.918       .  S
C727        C728   1.404       .  A
C727        C732   1.399       .  A
C727        H734   1.083       .  S
C728        C729   1.417       .  A
C729        C730   1.404       .  A
C729       Br736   1.920       .  S
C730        C731   1.406       .  A
C730        H735   1.083       .  S
C731        C732   1.417       .  A
C732       Br733   1.924       .  S
C737        C738   1.402       .  A
C737        C742   1.389   1_455  A
C737        H744   1.083       .  S
C738        C739   1.414       .  A
C739        C740   1.407   1_455  A
C739       Br746   1.918       .  S
C740        C741   1.407       .  A
C740        H745   1.083       .  S
C741        C742   1.416       .  A
C742       Br743   1.926   1_545  S
C747        C748   1.409       .  A
C747        C752   1.405       .  A
C747        H754   1.083       .  S
C748        C749   1.414       .  A
C749        C750   1.399       .  A
C749       Br756   1.921       .  S
C750        C751   1.407       .  A
C750        H755   1.083       .  S
C751        C752   1.412       .  A
C752       Br753   1.919       .  S
C757        C758   1.404       .  A
C757        C762   1.395       .  A
C757        H764   1.083       .  S
C758        C759   1.407       .  A
C759        C760   1.396       .  A
C759       Br766   1.920       .  S
C760        C761   1.405       .  A
C760        H765   1.083       .  S
C761        C762   1.408       .  A
C762       Br763   1.921       .  S
C767        C768   1.407       .  A
C767        C772   1.401       .  A
C767        H774   1.084       .  S
C768        C769   1.405       .  A
C769        C770   1.403       .  A
C769       Br776   1.918       .  S
C770        C771   1.409       .  A
C770        H775   1.083       .  S
C771        C772   1.407       .  A
C772      Br1829   1.918       .  S
Br773      C1828   1.918   1_554  S
C777        C778   1.403       .  A
C777        C782   1.399       .  A
C777        H784   1.083       .  S
C778        C779   1.417       .  A
C779        C780   1.398       .  A
C779       Br786   1.923       .  S
C780        C781   1.403       .  A
C780        H785   1.083       .  S
C781        C782   1.417       .  A
C782       Br783   1.922       .  S
C787        C788   1.403       .  A
C787        C792   1.395       .  A
C787        H794   1.084       .  S
C788        C789   1.412       .  A
C789        C790   1.392       .  A
C789       Br796   1.923       .  S
C790        C791   1.400       .  A
C790        H795   1.084       .  S
C791        C792   1.410       .  A
C792       Br793   1.921       .  S
C797        C798   1.406       .  A
C797        C802   1.399       .  A
C797        H804   1.083       .  S
C798        C799   1.414       .  A
C799        C800   1.403       .  A
C799       Br806   1.921       .  S
C800        C801   1.407       .  A
C800        H805   1.083       .  S
C801        C802   1.415       .  A
C802       Br803   1.922       .  S
C807        C812   1.404       .  A
C807       C1864   1.403   1_554  A
C807        H814   1.083       .  S
C808        C809   1.409       .  A
C808       C1863   1.403       .  A
C809        C810   1.393       .  A
C809       Br816   1.923       .  S
C810        C811   1.401       .  A
C810        H815   1.084       .  S
C811       C1868   1.410       .  A
C812       C1867   1.410   1_554  A
C812       Br813   1.916       .  S
C817        C818   1.408       .  A
C817        C822   1.400       .  A
C817        H824   1.083       .  S
C818        C819   1.412       .  A
C819        C820   1.403       .  A
C819       Br826   1.920       .  S
C820        C821   1.409       .  A
C820        H825   1.083       .  S
C821        C822   1.413       .  A
C822       Br823   1.921       .  S
C827        C828   1.403       .  A
C827        C832   1.393       .  A
C827        H834   1.083       .  S
C828        C829   1.409       .  A
C829        C830   1.396       .  A
C829       Br836   1.921       .  S
C830        C831   1.403       .  A
C830        H835   1.083       .  S
C831        C832   1.407       .  A
C832       Br833   1.921       .  S
C837        C838   1.407       .  A
C837        C842   1.402       .  A
C837        H844   1.083       .  S
C838        C839   1.410       .  A
C839        C840   1.402       .  A
C839       Br846   1.920       .  S
C840        C841   1.410       .  A
C840        H845   1.083       .  S
C841        C842   1.414       .  A
C842       Br843   1.921       .  S
C847        C848   1.404       .  A
C847        C852   1.396       .  A
C847        H854   1.083       .  S
C848        C849   1.415       .  A
C849        C850   1.395       .  A
C849       Br856   1.923       .  S
C850        C851   1.399       .  A
C850        H855   1.084       .  S
C851        C852   1.407       .  A
C852       Br853   1.920       .  S
C857        C858   1.408       .  A
C857        C862   1.408       .  A
C857        H864   1.083       .  S
C858        C859   1.413       .  A
C859        C860   1.391       .  A
C859      Br1922   1.925       .  S
C860        C861   1.403       .  A
C860       H1921   1.084       .  S
C861        C862   1.412       .  A
C862       Br863   1.918       .  S
H865       C1916   1.084   1_554  S
Br866      C1915   1.925   1_554  S
C867        C872   1.399       .  A
C867       C1924   1.403       .  A
C867        H874   1.084       .  S
C868        C869   1.404       .  A
C868       C1923   1.403   1_554  A
C869       C1926   1.393   1_554  A
C869       Br876   1.920       .  S
C870        C871   1.408       .  A
C870       C1925   1.393       .  A
C870        H875   1.083       .  S
C871        C872   1.413       .  A
C872       Br873   1.921       .  S
C877        C878   1.402       .  A
C877        C882   1.398       .  A
C877        H884   1.083       .  S
C878        C879   1.411       .  A
C879        C880   1.408       .  A
C879       Br886   1.916       .  S
C880        C881   1.405       .  A
C880        H885   1.083       .  S
C881        C882   1.408       .  A
C882       Br883   1.922       .  S
C887        C892   1.393       .  A
C887       C1944   1.401       .  A
C887        H894   1.084       .  S
C888        C889   1.407       .  A
C888       C1943   1.401   1_554  A
C889       C1946   1.395   1_554  A
C889       Br896   1.921       .  S
C890        C891   1.405       .  A
C890       C1945   1.395       .  A
C890        H895   1.083       .  S
C891        C892   1.412       .  A
C892       Br893   1.922       .  S
C897        C898   1.403       .  A
C897        C902   1.406       .  A
C897        H904   1.083       .  S
C898        C899   1.412       .  A
C899        C900   1.395       .  A
C899       Br906   1.923       .  S
C900        C901   1.402       .  A
C900        H905   1.083       .  S
C901        C902   1.416       .  A
C902       Br903   1.919       .  S
C907        C908   1.404       .  A
C907        C912   1.404       .  A
C907        H914   1.083       .  S
C908        C909   1.415       .  A
C909        C910   1.401       .  A
C909       Br916   1.922       .  S
C910        C911   1.405       .  A
C910        H915   1.083       .  S
C911        C912   1.417       .  A
C912       Br913   1.921       .  S
C917        C918   1.406       .  A
C917        C922   1.406   1_655  A
C917        H924   1.083       .  S
C918        C919   1.410       .  A
C919        C920   1.393   1_655  A
C919       Br926   1.922       .  S
C920        C921   1.403       .  A
C920        H925   1.084       .  S
C921        C922   1.411       .  A
C922       Br923   1.918       .  S
C927        C928   1.409       .  A
C927        C932   1.402       .  A
C927        H934   1.083       .  S
C928        C929   1.413       .  A
C929        C930   1.399       .  A
C929       Br936   1.922       .  S
C930        C931   1.408       .  A
C930        H935   1.083       .  S
C931        C932   1.412       .  A
C932       Br933   1.920       .  S
C937        C938   1.403       .  A
C937        C942   1.394       .  A
C937        H944   1.083       .  S
C938        C939   1.408       .  A
C939        C940   1.396       .  A
C939       Br946   1.920       .  S
C940        C941   1.405       .  A
C940        H945   1.083       .  S
C941        C942   1.410       .  A
C942       Br943   1.921       .  S
C947        C948   1.403       .  A
C947        C952   1.401       .  A
C947        H954   1.083       .  S
C948        C949   1.417       .  A
C949        C950   1.401       .  A
C949       Br956   1.922       .  S
C950        C951   1.404       .  A
C950        H955   1.083       .  S
C951        C952   1.419       .  A
C952       Br953   1.923       .  S
C957        C958   1.404       .  A
C957        C962   1.394       .  A
C957        H964   1.083       .  S
C958        C959   1.410       .  A
C959        C960   1.396       .  A
C959       Br966   1.921       .  S
C960        C961   1.403       .  A
C960        H965   1.083       .  S
C961        C962   1.407       .  A
C962       Br963   1.921       .  S
C967        C968   1.409       .  A
C967        C972   1.403       .  A
C967        H974   1.083       .  S
C968        C969   1.407       .  A
C969        C970   1.401       .  A
C969      Br2032   1.919   1_554  S
C970        C971   1.406       .  A
C970        H975   1.084       .  S
C971        C972   1.404       .  A
C972       Br973   1.917       .  S
Br976      C2025   1.919       .  S
C977        C978   1.405       .  A
C977        C982   1.405       .  A
C977        H984   1.083       .  S
C978       C2035   1.410       .  A
C979        C980   1.391       .  A
C979       C2034   1.410   1_554  A
C979       Br986   1.924       .  S
C980       C2037   1.401   1_554  A
C980        H985   1.084       .  S
C981        C982   1.410       .  A
C981       C2036   1.401       .  A
C982       Br983   1.918       .  S
C987        C988   1.402       .  A
C987        C992   1.397       .  A
C987        H994   1.084       .  S
C988        C989   1.413   1_565  A
C989        C990   1.403       .  A
C989       Br996   1.919       .  S
C990        C991   1.402       .  A
C990        H995   1.083       .  S
C991        C992   1.413   1_545  A
C992       Br993   1.921       .  S
C997        C998   1.400       .  A
C997       C2058   1.396   1_545  A
C997       H1004   1.083       .  S
C998        C999   1.408       .  A
C999       C2056   1.393   1_545  A
C999      Br1006   1.920       .  S
C1000      C1001   1.400       .  A
C1000      C2055   1.393   1_564  A
C1000      H1005   1.083       .  S
C1001      C1002   1.410       .  A
C1002      C2053   1.396   1_564  A
C1002     Br1003   1.920       .  S
C1007      C1008   1.407       .  A
C1007      C1012   1.399       .  A
C1007      H1014   1.084       .  S
C1008      C1009   1.407       .  A
C1009      C1010   1.402       .  A
C1009     Br1016   1.918       .  S
C1010      C1011   1.408       .  A
C1010      H1015   1.084       .  S
C1011      C1012   1.407       .  A
C1012     Br2069   1.919   1_554  S
Br1013     C2068   1.919       .  S
C1017      C1018   1.400   1_545  A
C1017      C1022   1.396   1_554  A
C1017      H1024   1.084       .  S
C1018      C1019   1.408   1_554  A
C1019      C2076   1.394       .  A
C1019     Br2082   1.921       .  S
C1020      C1021   1.403   1_565  A
C1020      C2075   1.394       .  A
C1020      H1025   1.083       .  S
C1021      C2078   1.413       .  A
C1022      C2077   1.413       .  A
C1022     Br1023   1.922       .  S
Br1026     C2075   1.921       .  S
C1027      C1028   1.404       .  A
C1027      C1032   1.407       .  A
C1027      H1034   1.083       .  S
C1028      C1029   1.416   1_565  A
C1029      C1030   1.398       .  A
C1029     Br1036   1.923       .  S
C1030      C1031   1.402       .  A
C1030      H1035   1.083       .  S
C1031      C1032   1.419   1_545  A
C1032     Br1033   1.921       .  S
C1037      C1038   1.406       .  A
C1037      C1042   1.404       .  A
C1037      H1044   1.083       .  S
C1038      C1039   1.417       .  A
C1039      C1040   1.401       .  A
C1039     Br1046   1.922       .  S
C1040      C1041   1.406       .  A
C1040      H1045   1.083       .  S
C1041      C1158   1.494   1_554  S
C1041      C1042   1.417       .  A
C1042     Br1043   1.921       .  S
C1047      C1048   1.403       .  A
C1047      C1052   1.403   1_455  A
C1047      H1054   1.084       .  S
C1048      C1049   1.406       .  A
C1049      C1050   1.397   1_455  A
C1049     Br1056   1.920       .  S
C1050      C1051   1.405       .  A
C1050      H1055   1.083       .  S
C1051      C1052   1.413       .  A
C1052     Br1053   1.920       .  S
In1057     O1059   2.288       .  S
In1057     O1060   2.222       .  S
In1057     O1068   2.248       .  S
In1057     O1062   2.262       .  S
In1057     O1064   2.265       .  S
In1057     O1065   2.236       .  S
In1057     O1066   2.228       .  S
In1057     O1069   2.228       .  S
C1058      O1064   1.263       .  A
C1058      O1066   1.258       .  A
C1058      C2104   1.471       .  S
O1059      C1067   1.266       .  A
O1060      C1067   1.255       .  A
C1061      O1068   1.259       .  A
C1061      O1062   1.262       .  A
C1061      C2094   1.493       .  S
C1063      O1065   1.260       .  A
C1063      O1069   1.258       .  A
C1063      C2074   1.464       .  S
C1067      C2084   1.489       .  S
In1070     O1072   2.228       .  S
In1070     O1073   2.230       .  S
In1070     O1081   2.231       .  S
In1070     O1075   2.274       .  S
In1070     O1077   2.260       .  S
In1070     O1078   2.235       .  S
In1070     O1079   2.231       .  S
In1070     O1082   2.259       .  S
C1071      O1077   1.264       .  A
C1071      O1079   1.260       .  A
C1071      C2107   1.479       .  S
O1072      C1080   1.260       .  A
O1073      C1080   1.260       .  A
C1074      O1081   1.255       .  A
C1074      O1075   1.263       .  A
C1074      C2064   1.479       .  S
C1076      O1078   1.257       .  A
C1076      O1082   1.263       .  A
C1076      C2044   1.479       .  S
C1080      C2057   1.462       .  S
In1083     O1085   2.263       .  S
In1083     O1086   2.232       .  S
In1083     O1094   2.261       .  S
In1083     O1090   2.274       .  S
In1083     O1092   2.210   1_556  S
C1084      O1090   1.264       .  A
C1084      O1092   1.256   1_556  A
C1084      C2034   1.472       .  S
O1085      C1093   1.266       .  A
O1086      C1093   1.258       .  A
C1087      O1088   1.258       .  A
C1087      C2024   1.480       .  S
C1089      O1091   1.262       .  A
C1089      O1095   1.258       .  A
C1089      C2014   1.469       .  S
C1093      C2004   1.489       .  S
In1096     O1103   2.269       .  S
In1096     O1104   2.240       .  S
In1096     O1105   2.219   1_556  S
In1096     O1108   2.251       .  S
C1097      O1103   1.262       .  A
C1097      O1105   1.257   1_556  A
C1097      C2037   1.473       .  S
O1098      C1106   1.259       .  A
O1099      C1106   1.263       .  A
C1100      O1107   1.261       .  A
C1100      O1101   1.258       .  A
C1100      C2067   1.479       .  S
C1102      O1104   1.261       .  A
C1102      O1108   1.263       .  A
C1102      C1984   1.490       .  S
C1106      C1994   1.468       .  S
In1109     O1111   2.216       .  S
In1109     O1112   2.236       .  S
In1109     O1120   2.249       .  S
In1109     O1114   2.262       .  S
In1109     O1116   2.273       .  S
In1109     O1117   2.250       .  S
In1109     O1118   2.222       .  S
In1109     O1121   2.251       .  S
C1110      O1116   1.264       .  A
C1110      O1118   1.257       .  A
C1110      C1977   1.480       .  S
O1111      C1119   1.260       .  A
O1112      C1119   1.263       .  A
C1113      O1120   1.260       .  A
C1113      O1114   1.261       .  A
C1113      C1964   1.488       .  S
C1115      O1117   1.258       .  A
C1115      O1121   1.263       .  A
C1115      C1957   1.485       .  S
C1119      C1944   1.465       .  S
In1122     O1124   2.256       .  S
In1122     O1125   2.266       .  S
In1122     O1133   2.239       .  S
In1122     O1127   2.267       .  S
In1122     O1129   2.270       .  S
In1122     O1130   2.236       .  S
In1122     O1131   2.225       .  S
In1122     O1134   2.228       .  S
C1123      O1129   1.264       .  A
C1123      O1131   1.258       .  A
C1123      C1974   1.478       .  S
O1124      C1132   1.259       .  A
O1125      C1132   1.258       .  A
C1126      O1133   1.258       .  A
C1126      O1127   1.263       .  A
C1126      C2027   1.476       .  S
C1128      O1130   1.264       .  A
C1128      O1134   1.260       .  A
C1128      C1924   1.466       .  S
C1132      C1937   1.477       .  S
In1135     O1142   2.276       .  S
In1135     O1143   2.238       .  S
In1135     O1144   2.210       .  S
In1135     O1147   2.265       .  S
C1136      O1142   1.266       .  A
C1136      O1144   1.258       .  A
C1136      C1914   1.482       .  S
O1137      C1145   1.258       .  A
O1138      C1145   1.263       .  A
C1139      O1146   1.261       .  A
C1139      O1140   1.261       .  A
C1139      C1967   1.492       .  S
C1141      O1143   1.260       .  A
C1141      O1147   1.264       .  A
C1141      C1897   1.493       .  S
C1145      C1904   1.474       .  S
In1148     O1150   2.250       .  S
In1148     O1151   2.257       .  S
In1148     O1159   2.272       .  S
In1148     O1153   2.230       .  S
In1148     O1155   2.239       .  S
In1148     O1156   2.280       .  S
In1148     O1160   2.210       .  S
C1149      O1157   1.260       .  A
C1149      C1884   1.467       .  S
O1150      C1158   1.261       .  A
O1151      C1158   1.260       .  A
C1152      O1159   1.265       .  A
C1152      O1153   1.258       .  A
C1152      C1874   1.491       .  S
C1154      O1156   1.265       .  A
C1154      O1160   1.258       .  A
C1154      C1917   1.482       .  S
In1161     O1172   2.240       .  S
In1161     O1166   2.256       .  S
In1161     O1168   2.273   1_556  S
In1161     O1169   2.234       .  S
In1161     O1170   2.213       .  S
In1161     O1173   2.208       .  S
C1162      O1168   1.264   1_556  A
C1162      O1170   1.256       .  A
C1162      C1864   1.471       .  S
O1163      C1171   1.265       .  A
O1164      C1171   1.257       .  A
C1165      O1172   1.260       .  A
C1165      O1166   1.261       .  A
C1165      C1854   1.490       .  S
C1167      O1169   1.264       .  A
C1167      O1173   1.259       .  A
C1167      C1844   1.468       .  S
C1171      C1837   1.485       .  S
In1174     O1176   2.212       .  S
In1174     O1177   2.248       .  S
In1174     O1185   2.264       .  S
In1174     O1179   2.245       .  S
In1174     O1181   2.266   1_556  S
In1174     O1183   2.226       .  S
C1175      O1181   1.262   1_556  A
C1175      O1183   1.257       .  A
C1175      C1867   1.472       .  S
O1176      C1184   1.258       .  A
O1177      C1184   1.264       .  A
C1178      O1185   1.262       .  A
C1178      O1179   1.258       .  A
C1178      C1827   1.481       .  S
C1180      O1182   1.262       .  A
C1180      O1186   1.263       .  A
C1180      C1804   1.491       .  S
C1184      C1814   1.467       .  S
In1187     O1189   2.261       .  S
In1187     O1190   2.246       .  S
In1187     O1198   2.243       .  S
In1187     O1192   2.256       .  S
In1187     O1194   2.273       .  S
In1187     O1195   2.236       .  S
In1187     O1196   2.203       .  S
In1187     O1199   2.224       .  S
C1188      O1194   1.264       .  A
C1188      O1196   1.259       .  A
C1188      C1794   1.484       .  S
O1189      C1197   1.265       .  A
O1190      C1197   1.258       .  A
C1191      O1198   1.259       .  A
C1191      O1192   1.261       .  A
C1191      C1857   1.491       .  S
C1193      O1195   1.263       .  A
C1193      O1199   1.259       .  A
C1193      C2077   1.471       .  S
C1197      C2087   1.491       .  S
In1200     O1202   2.219       .  S
In1200     O1203   2.235       .  S
In1200     O1211   2.228       .  S
In1200     O1205   2.266       .  S
In1200     O1207   2.281       .  S
In1200     O1208   2.224       .  S
In1200     O1209   2.191       .  S
In1200     O1212   2.264       .  S
C1201      O1207   1.269       .  A
C1201      O1209   1.255       .  A
C1201      C1797   1.484       .  S
O1202      C1210   1.259       .  A
O1203      C1210   1.263       .  A
C1204      O1211   1.258       .  A
C1204      O1205   1.265       .  A
C1204      C1787   1.490       .  S
C1206      O1208   1.258       .  A
C1206      O1212   1.265       .  A
C1206      C2047   1.478       .  S
C1210      C2054   1.462       .  S
In1213     O1215   2.228       .  S
In1213     O1216   2.218       .  S
In1213     O1224   2.238       .  S
In1213     O1218   2.271       .  S
In1213     O1220   2.274       .  S
In1213     O1221   2.219       .  S
In1213     O1222   2.228       .  S
In1213     O1225   2.286       .  S
C1214      O1220   1.263       .  A
C1214      O1222   1.256       .  A
C1214      C1774   1.469       .  S
O1215      C1223   1.264       .  A
O1216      C1223   1.262       .  A
C1217      O1224   1.257       .  A
C1217      O1218   1.263       .  A
C1217      C1824   1.478       .  S
C1219      O1221   1.254       .  A
C1219      O1225   1.263       .  A
C1219      C1954   1.480       .  S
C1223      C1947   1.471       .  S
In1226     O1228   2.251       .  S
In1226     O1229   2.266       .  S
In1226     O1237   2.263       .  S
In1226     O1231   2.256       .  S
In1226     O1233   2.259       .  S
In1226     O1234   2.252       .  S
In1226     O1235   2.232       .  S
In1226     O1238   2.213       .  S
C1227      O1233   1.264       .  A
C1227      O1235   1.259       .  A
C1227      C1777   1.470       .  S
O1228      C1236   1.261       .  A
O1229      C1236   1.261       .  A
C1230      O1237   1.260       .  A
C1230      O1231   1.258       .  A
C1230      C1767   1.490       .  S
C1232      O1234   1.263       .  A
C1232      O1238   1.259       .  A
C1232      C1927   1.478       .  S
C1236      C1934   1.480       .  S
In1239     O1241   2.221       .  S
In1239     O1242   2.243       .  S
In1239     O1250   2.251       .  S
In1239     O1244   2.255       .  S
In1239     O1246   2.272   1_556  S
In1239     O1248   2.222       .  S
C1240      O1246   1.262   1_556  A
C1240      O1248   1.258       .  A
C1240      C1754   1.478       .  S
O1241      C1249   1.259       .  A
O1242      C1249   1.263       .  A
C1243      O1250   1.261       .  A
C1243      O1244   1.258       .  A
C1243      C1784   1.491       .  S
C1245      O1247   1.258       .  A
C1245      O1251   1.264       .  A
C1245      C1734   1.489       .  S
C1249      C1744   1.471       .  S
In1252     O1263   2.243       .  S
In1252     O1257   2.269       .  S
In1252     O1259   2.281   1_556  S
In1252     O1260   2.228       .  S
In1252     O1264   2.217       .  S
C1253      O1261   1.256       .  A
O1254      C1262   1.264       .  A
O1255      C1262   1.255       .  A
C1256      O1263   1.259       .  A
C1256      O1257   1.263       .  A
C1256      C1764   1.487       .  S
C1258      O1260   1.264       .  A
C1258      O1264   1.260       .  A
C1258      C1724   1.472       .  S
C1262      C1714   1.488       .  S
In1265     O1267   2.259       .  S
In1265     O1268   2.223       .  S
In1265     O1276   2.231       .  S
In1265     O1270   2.250       .  S
In1265     O1272   2.272       .  S
In1265     O1273   2.222       .  S
In1265     O1274   2.210       .  S
In1265     O1277   2.225       .  S
C1266      O1272   1.264       .  A
C1266      O1274   1.256       .  A
C1266      C1704   1.474       .  S
O1267      C1275   1.264       .  A
O1268      C1275   1.255       .  A
C1269      O1276   1.258       .  A
C1269      O1270   1.262       .  A
C1269      C1697   1.476       .  S
C1271      O1273   1.262       .  A
C1271      O1277   1.261       .  A
C1271      C1847   1.466       .  S
C1275      C1834   1.484       .  S
In1278     O1280   2.219       .  S
In1278     O1281   2.240       .  S
In1278     O1289   2.244       .  S
In1278     O1283   2.248       .  S
In1278     O1285   2.272       .  S
In1278     O1286   2.233       .  S
In1278     O1287   2.208       .  S
In1278     O1290   2.277       .  S
C1279      O1285   1.264       .  A
C1279      O1287   1.258       .  A
C1279      C1707   1.477       .  S
O1280      C1288   1.259       .  A
O1281      C1288   1.263       .  A
C1282      O1289   1.262       .  A
C1282      O1283   1.260       .  A
C1282      C1684   1.488       .  S
C1284      O1286   1.258       .  A
C1284      O1290   1.264       .  A
C1284      C1807   1.491       .  S
C1288      C1817   1.469       .  S
In1291     O1293   2.230       .  S
In1291     O1294   2.235       .  S
In1291     O1302   2.238       .  S
In1291     O1296   2.262       .  S
In1291     O1298   2.283       .  S
In1291     O1299   2.228       .  S
In1291     O1300   2.206       .  S
In1291     O1303   2.278       .  S
C1292      O1298   1.266       .  A
C1292      O1300   1.255       .  A
C1292      C1677   1.487       .  S
O1293      C1301   1.260       .  A
O1294      C1301   1.262       .  A
C1295      O1302   1.260       .  A
C1295      O1296   1.262       .  A
C1295      C1664   1.487       .  S
C1297      O1299   1.256       .  A
C1297      O1303   1.265       .  A
C1297      C1737   1.487       .  S
C1301      C1747   1.470       .  S
In1304     O1306   2.266       .  S
In1304     O1307   2.233       .  S
In1304     O1315   2.238       .  S
In1304     O1309   2.262       .  S
In1304     O1311   2.282       .  S
In1304     O1312   2.221       .  S
In1304     O1313   2.214       .  S
In1304     O1316   2.229       .  S
C1305      O1311   1.263       .  A
C1305      O1313   1.257       .  A
C1305      C1674   1.487       .  S
O1306      C1314   1.264       .  A
O1307      C1314   1.255       .  A
C1308      O1315   1.258       .  A
C1308      O1309   1.263       .  A
C1308      C1654   1.480       .  S
C1310      O1312   1.262       .  A
C1310      O1316   1.261       .  A
C1310      C1727   1.465       .  S
C1314      C1717   1.489       .  S
In1317     O1319   2.233       .  S
In1317     O1320   2.249       .  S
In1317     O1328   2.247       .  S
In1317     O1322   2.236       .  S
In1317     O1324   2.252       .  S
In1317     O1325   2.241       .  S
In1317     O1326   2.215       .  S
In1317     O1329   2.219       .  S
C1318      O1324   1.263       .  A
C1318      O1326   1.262       .  A
C1318      C1647   1.479       .  S
O1319      C1327   1.261       .  A
O1320      C1327   1.260       .  A
C1321      O1328   1.261       .  A
C1321      O1322   1.257       .  A
C1321      C1694   1.482       .  S
C1323      O1325   1.263       .  A
C1323      O1329   1.258       .  A
C1323      C1634   1.473       .  S
C1327      C1624   1.471       .  S
In1330     O1332   2.219       .  S
In1330     O1333   2.232       .  S
In1330     O1341   2.236       .  S
In1330     O1335   2.256       .  S
In1330     O1337   2.275       .  S
In1330     O1338   2.223       .  S
In1330     O1339   2.204       .  S
In1330     O1342   2.273       .  S
C1331      O1337   1.266       .  A
C1331      O1339   1.255       .  A
C1331      C1644   1.477       .  S
O1332      C1340   1.259       .  A
O1333      C1340   1.262       .  A
C1334      O1341   1.260       .  A
C1334      O1335   1.263       .  A
C1334      C1667   1.489       .  S
C1336      O1338   1.257       .  A
C1336      O1342   1.265       .  A
C1336      C1604   1.480       .  S
C1340      C1614   1.453       .  S
In1343     O1345   2.252       .  S
In1343     O1346   2.249       .  S
In1343     O1354   2.259       .  S
In1343     O1348   2.244       .  S
In1343     O1350   2.264       .  S
In1343     O1351   2.250       .  S
In1343     O1352   2.213       .  S
In1343     O1355   2.210       .  S
C1344      O1350   1.264       .  A
C1344      O1352   1.258       .  A
C1344      C1597   1.472       .  S
O1345      C1353   1.262       .  A
O1346      C1353   1.261       .  A
C1347      O1354   1.261       .  A
C1347      O1348   1.258       .  A
C1347      C1657   1.481       .  S
C1349      O1351   1.265       .  A
C1349      O1355   1.256       .  A
C1349      C1584   1.477       .  S
C1353      C1577   1.488       .  S
In1356     O1358   2.219       .  S
In1356     O1359   2.234       .  S
In1356     O1367   2.232       .  S
In1356     O1361   2.256       .  S
In1356     O1363   2.268       .  S
In1356     O1364   2.247       .  S
In1356     O1365   2.206       .  S
In1356     O1368   2.240       .  S
C1357      O1363   1.265       .  A
C1357      O1365   1.257       .  A
C1357      C1594   1.469       .  S
O1358      C1366   1.259       .  A
O1359      C1366   1.264       .  A
C1360      O1367   1.259       .  A
C1360      O1361   1.263       .  A
C1360      C1687   1.485       .  S
C1362      O1364   1.260       .  A
C1362      O1368   1.262       .  A
C1362      C1554   1.477       .  S
C1366      C1564   1.463       .  S
In1369     O1371   2.270       .  S
In1369     O1372   2.228       .  S
In1369     O1380   2.241       .  S
In1369     O1374   2.256       .  S
In1369     O1376   2.275       .  S
In1369     O1377   2.232       .  S
In1369     O1378   2.209       .  S
In1369     O1381   2.225       .  S
C1370      O1376   1.265       .  A
C1370      O1378   1.256       .  A
C1370      C1544   1.480       .  S
O1371      C1379   1.266       .  A
O1372      C1379   1.256       .  A
C1373      O1380   1.259       .  A
C1373      O1374   1.262       .  A
C1373      C1537   1.488       .  S
C1375      O1377   1.261       .  A
C1375      O1381   1.260       .  A
C1375      C2017   1.466       .  S
C1379      C2007   1.491       .  S
In1382     O1384   2.225       .  S
In1382     O1385   2.228       .  S
In1382     O1393   2.236       .  S
In1382     O1387   2.259       .  S
In1382     O1389   2.274       .  S
In1382     O1390   2.232       .  S
In1382     O1391   2.214       .  S
In1382     O1394   2.271       .  S
C1383      O1389   1.263       .  A
C1383      O1391   1.258       .  A
C1383      C1547   1.479       .  S
O1384      C1392   1.262       .  A
O1385      C1392   1.263       .  A
C1386      O1393   1.259       .  A
C1386      O1387   1.262       .  A
C1386      C1527   1.477       .  S
C1388      O1390   1.257       .  A
C1388      O1394   1.262       .  A
C1388      C1987   1.489       .  S
C1392      C1997   1.470       .  S
In1395     O1397   2.265       .  S
In1395     O1398   2.220       .  S
In1395     O1406   2.229       .  S
In1395     O1400   2.249       .  S
In1395     O1402   2.278       .  S
In1395     O1403   2.237       .  S
In1395     O1404   2.208       .  S
In1395     O1407   2.218       .  S
C1396      O1402   1.264       .  A
C1396      O1404   1.255       .  A
C1396      C1517   1.471       .  S
O1397      C1405   1.262       .  A
O1398      C1405   1.257       .  A
C1399      O1406   1.259       .  A
C1399      O1400   1.263       .  A
C1399      C1504   1.486       .  S
C1401      O1403   1.263       .  A
C1401      O1407   1.260       .  A
C1401      C1637   1.455       .  S
In1408     O1410   2.210       .  S
In1408     O1411   2.239       .  S
In1408     O1419   2.250       .  S
In1408     O1413   2.246       .  S
In1408     O1415   2.263       .  S
In1408     O1416   2.245       .  S
In1408     O1417   2.211       .  S
In1408     O1420   2.244       .  S
C1409      O1415   1.264       .  A
C1409      O1417   1.259       .  A
C1409      C1514   1.470       .  S
O1410      C1418   1.260       .  A
O1411      C1418   1.263       .  A
C1412      O1419   1.260       .  A
C1412      O1413   1.259       .  A
C1412      C1524   1.482       .  S
C1414      O1416   1.260       .  A
C1414      O1420   1.263       .  A
C1414      C1607   1.480       .  S
C1418      C1617   1.475       .  S
In1421     O1423   2.226       .  S
In1421     O1424   2.225       .  S
In1421     O1432   2.237       .  S
In1421     O1426   2.260       .  S
In1421     O1428   2.277       .  S
In1421     O1429   2.225       .  S
In1421     O1430   2.213       .  S
In1421     O1433   2.277       .  S
C1422      O1428   1.263       .  A
C1422      O1430   1.257       .  A
C1422      C1494   1.485       .  S
O1423      C1431   1.260       .  A
O1424      C1431   1.263       .  A
C1425      O1432   1.259       .  A
C1425      O1426   1.264       .  A
C1425      C1484   1.481       .  S
C1427      O1429   1.255       .  A
C1427      O1433   1.263       .  A
C1427      C1557   1.474       .  S
C1431      C1567   1.474       .  S
In1434     O1436   2.274       .  S
In1434     O1437   2.232       .  S
In1434     O1445   2.240       .  S
In1434     O1439   2.253       .  S
In1434     O1441   2.278       .  S
In1434     O1442   2.230       .  S
In1434     O1443   2.214       .  S
In1434     O1446   2.234       .  S
C1435      O1441   1.264       .  A
C1435      O1443   1.255       .  A
C1435      C1497   1.477       .  S
O1436      C1444   1.264       .  A
O1437      C1444   1.258       .  A
C1438      O1445   1.262       .  A
C1438      O1439   1.262       .  A
C1438      C1534   1.484       .  S
C1440      O1442   1.262       .  A
C1440      O1446   1.260       .  A
C1440      C1587   1.460       .  S
C1444      C1574   1.484       .  S
In1447     O1449   2.225       .  S
In1447     O1450   2.241       .  S
In1447     O1458   2.254       .  S
In1447     O1452   2.245       .  S
In1447     O1454   2.276       .  S
In1447     O1455   2.237       .  S
In1447     O1456   2.211       .  S
In1447     O1459   2.262       .  S
C1448      O1454   1.264       .  A
C1448      O1456   1.257       .  A
C1448      C1474   1.483       .  S
O1449      C1457   1.258       .  A
O1450      C1457   1.262       .  A
C1451      O1458   1.262       .  A
C1451      O1452   1.260       .  A
C1451      C1487   1.479       .  S
C1453      O1455   1.261       .  A
C1453      O1459   1.265       .  A
C1453      C1894   1.489       .  S
C1457      C1907   1.465       .  S
In1460     O1462   2.261       .  S
In1460     O1463   2.239       .  S
In1460     O1471   2.239       .  S
In1460     O1465   2.248       .  S
In1460     O1467   2.270       .  S
In1460     O1468   2.229       .  S
In1460     O1469   2.214       .  S
In1460     O1472   2.225       .  S
C1461      O1467   1.264       .  A
C1461      O1469   1.256       .  A
C1461      C1477   1.481       .  S
O1462      C1470   1.263       .  A
O1463      C1470   1.259       .  A
C1464      O1471   1.261       .  A
C1464      O1465   1.260       .  A
C1464      C1507   1.485       .  S
C1466      O1468   1.262       .  A
C1466      O1472   1.260       .  A
C1466      C1887   1.466       .  S
C1470      C1877   1.491       .  S
C1473      C1474   1.404       .  A
C1473      C1478   1.392       .  A
C1473      H1480   1.083       .  S
C1474      C1475   1.413       .  A
C1475      C1476   1.405       .  A
C1475     Br1482   1.919       .  S
C1476      C1477   1.407       .  A
C1476      H1481   1.083       .  S
C1477      C1478   1.413       .  A
C1478     Br1479   1.924       .  S
C1483      C1484   1.407       .  A
C1483      C1488   1.401       .  A
C1483      H1490   1.084       .  S
C1484      C1485   1.408       .  A
C1485      C1486   1.402       .  A
C1485     Br1492   1.919       .  S
C1486      C1487   1.407       .  A
C1486      H1491   1.083       .  S
C1487      C1488   1.407       .  A
C1488     Br1489   1.919       .  S
C1493      C1494   1.405       .  A
C1493      C1498   1.392       .  A
C1493      H1500   1.083       .  S
C1494      C1495   1.415       .  A
C1495      C1496   1.406       .  A
C1495     Br1502   1.919       .  S
C1496      C1497   1.405       .  A
C1496      H1501   1.083       .  S
C1497      C1498   1.411       .  A
C1498     Br1499   1.924       .  S
C1503      C1504   1.407       .  A
C1503      C1508   1.401       .  A
C1503      H1510   1.083       .  S
C1504      C1505   1.415       .  A
C1505      C1506   1.398       .  A
C1505     Br1512   1.923       .  S
C1506      C1507   1.405       .  A
C1506      H1511   1.083       .  S
C1507      C1508   1.413       .  A
C1508     Br1509   1.920       .  S
C1513      C1514   1.405       .  A
C1513      C1518   1.405       .  A
C1513      H1520   1.083       .  S
C1514      C1515   1.408       .  A
C1515      C1516   1.391       .  A
C1515     Br1522   1.923       .  S
C1516      C1517   1.401       .  A
C1516      H1521   1.084       .  S
C1517      C1518   1.409       .  A
C1518     Br1519   1.917       .  S
C1523      C1524   1.409       .  A
C1523      C1528   1.402       .  A
C1523      H1530   1.083       .  S
C1524      C1525   1.409       .  A
C1525      C1526   1.399       .  A
C1525     Br1532   1.920       .  S
C1526      C1527   1.406       .  A
C1526      H1531   1.083       .  S
C1527      C1528   1.406       .  A
C1528     Br1529   1.918       .  S
C1533      C1534   1.405       .  A
C1533      C1538   1.399       .  A
C1533      H1540   1.083       .  S
C1534      C1535   1.410       .  A
C1535      C1536   1.403       .  A
C1535     Br1542   1.919       .  S
C1536      C1537   1.409       .  A
C1536      H1541   1.083       .  S
C1537      C1538   1.413       .  A
C1538     Br1539   1.921       .  S
C1543      C1544   1.407       .  A
C1543      C1548   1.406       .  A
C1543      H1550   1.083       .  S
C1544      C1545   1.413       .  A
C1545      C1546   1.391       .  A
C1545     Br1552   1.926       .  S
C1546      C1547   1.402       .  A
C1546      H1551   1.084       .  S
C1547      C1548   1.412       .  A
C1548     Br1549   1.918       .  S
C1553      C1554   1.407       .  A
C1553      H1560   1.083       .  S
C1554      C1555   1.411       .  A
C1555     Br1562   1.923       .  S
C1556      C1557   1.402       .  A
C1556      H1561   1.084       .  S
C1557      C1558   1.407       .  A
C1558     Br1559   1.916       .  S
C1563      C1564   1.399       .  A
C1563      C1568   1.396       .  A
C1563      H1570   1.084       .  S
C1564      C1565   1.407       .  A
C1565      C1566   1.393       .  A
C1565     Br1572   1.921       .  S
C1566      C1567   1.405       .  A
C1566      H1571   1.083       .  S
C1567      C1568   1.415       .  A
C1568     Br1569   1.922       .  S
C1573      C1574   1.405       .  A
C1573      H1580   1.084       .  S
C1575      C1576   1.404       .  A
C1575     Br1582   1.918       .  S
C1576      C1577   1.409       .  A
C1576      H1581   1.083       .  S
C1577      C1578   1.414       .  A
C1583      C1584   1.406       .  A
C1583      C1588   1.396       .  A
C1583      H1590   1.083       .  S
C1584      C1585   1.418       .  A
C1585      C1586   1.394       .  A
C1585     Br1592   1.924       .  S
C1586      C1587   1.396       .  A
C1586      H1591   1.084       .  S
C1587      C1588   1.404       .  A
C1588     Br1589   1.916       .  S
C1593      C1594   1.404       .  A
C1593      C1598   1.404       .  A
C1593      H1600   1.083       .  S
C1594      C1595   1.408       .  A
C1595      C1596   1.391       .  A
C1595     Br1602   1.924       .  S
C1596      C1597   1.401       .  A
C1596      H1601   1.084       .  S
C1597      C1598   1.410       .  A
C1598     Br1599   1.917       .  S
C1603      C1604   1.404   1_565  A
C1603      H1610   1.084       .  S
C1604      C1605   1.409       .  A
C1605     Br1612   1.918       .  S
C1606      C1607   1.407       .  A
C1606      H1611   1.083   1_565  S
C1607      C1608   1.411       .  A
C1608     Br1609   1.923       .  S
C1613      C1614   1.397       .  A
C1613      C1618   1.397   1_545  A
C1613      H1620   1.084       .  S
C1614      C1615   1.400   1_545  A
C1615      C1616   1.391       .  A
C1615     Br1622   1.919       .  S
C1616      C1617   1.408       .  A
C1616      H1621   1.083       .  S
C1617      C1618   1.415       .  A
C1618     Br1619   1.920   1_565  S
C1623      C1624   1.406   1_565  A
C1623      C1628   1.405       .  A
C1623      H1630   1.083       .  S
C1624      C1625   1.409       .  A
C1625      C1626   1.392   1_545  A
C1625     Br1632   1.922       .  S
C1626      C1627   1.399   1_556  A
C1626      H1631   1.084   1_556  S
C1627      C1628   1.408   1_554  A
C1628     Br1629   1.917       .  S
C1633      C1634   1.406   1_565  A
C1633      C1638   1.396       .  A
C1633      H1640   1.083       .  S
C1634      C1635   1.415       .  A
C1635      C1636   1.395   1_545  A
C1635     Br1642   1.923       .  S
C1636      C1637   1.397       .  A
C1636      H1641   1.084       .  S
C1637      C1638   1.401       .  A
C1638     Br1639   1.918       .  S
C1643      C1644   1.404       .  A
C1643      C1648   1.403       .  A
C1643      H1650   1.083       .  S
C1644      C1645   1.412       .  A
C1645      C1646   1.391       .  A
C1645     Br1652   1.924   1_545  S
C1646      C1647   1.402       .  A
C1646      H1651   1.084       .  S
C1647      C1648   1.414       .  A
C1648     Br1649   1.919       .  S
C1653      C1654   1.407       .  A
C1653      C1658   1.400       .  A
C1653      H1660   1.083       .  S
C1654      C1655   1.407       .  A
C1655      C1656   1.402       .  A
C1655     Br1662   1.919       .  S
C1656      C1657   1.408       .  A
C1656      H1661   1.083       .  S
C1657      C1658   1.408       .  A
C1658     Br1659   1.919       .  S
C1663      C1664   1.406       .  A
C1663      C1668   1.399       .  A
C1663      H1670   1.083       .  S
C1664      C1665   1.411       .  A
C1665      C1666   1.404       .  A
C1665     Br1672   1.919       .  S
C1666      C1667   1.409       .  A
C1666      H1671   1.083       .  S
C1667      C1668   1.414       .  A
C1668     Br1669   1.922       .  S
C1673      C1674   1.403       .  A
C1673      C1678   1.392       .  A
C1673      H1680   1.083       .  S
C1674      C1675   1.414       .  A
C1675      C1676   1.408       .  A
C1675     Br1682   1.918       .  S
C1676      C1677   1.408       .  A
C1676      H1681   1.083       .  S
C1677      C1678   1.416       .  A
C1678     Br1679   1.926       .  S
C1683      C1684   1.404       .  A
C1683      C1688   1.398       .  A
C1683      H1690   1.083       .  S
C1684      C1685   1.417       .  A
C1685      C1686   1.403       .  A
C1685     Br1692   1.921       .  S
C1686      C1687   1.404       .  A
C1686      H1691   1.083       .  S
C1687      C1688   1.416       .  A
C1688     Br1689   1.923       .  S
C1693      C1694   1.403       .  A
C1693      C1698   1.397       .  A
C1693      H1700   1.084       .  S
C1694      C1695   1.417       .  A
C1695      C1696   1.400       .  A
C1695     Br1702   1.922       .  S
C1696      C1697   1.401       .  A
C1696      H1701   1.084       .  S
C1697      C1698   1.413       .  A
C1698     Br1699   1.923       .  S
C1703      C1704   1.405       .  A
C1703      C1708   1.405       .  A
C1703      H1710   1.083       .  S
C1704      C1705   1.410       .  A
C1705      C1706   1.391       .  A
C1705     Br1712   1.925       .  S
C1706      C1707   1.403       .  A
C1706      H1711   1.084       .  S
C1707      C1708   1.411       .  A
C1708     Br1709   1.918       .  S
C1713      C1714   1.403       .  A
C1713      C1718   1.402       .  A
C1713      H1720   1.083       .  S
C1714      C1715   1.417       .  A
C1715      C1716   1.399       .  A
C1715     Br1722   1.923       .  S
C1716      C1717   1.403       .  A
C1716      H1721   1.083       .  S
C1717      C1718   1.419       .  A
C1718     Br1719   1.923       .  S
C1723      C1724   1.404       .  A
C1723      C1728   1.394       .  A
C1723      H1730   1.083       .  S
C1724      C1725   1.414       .  A
C1725      C1726   1.394       .  A
C1725     Br1732   1.923       .  S
C1726      C1727   1.400       .  A
C1726      H1731   1.084       .  S
C1727      C1728   1.408       .  A
C1728     Br1729   1.921       .  S
C1733      C1734   1.403       .  A
C1733      C1738   1.399       .  A
C1733      H1740   1.083       .  S
C1734      C1735   1.417       .  A
C1735      C1736   1.405       .  A
C1735     Br1742   1.921       .  S
C1736      C1737   1.404       .  A
C1736      H1741   1.083       .  S
C1737      C1738   1.416       .  A
C1738     Br1739   1.923       .  S
C1743      C1744   1.403       .  A
C1743      C1748   1.397       .  A
C1743      H1750   1.083       .  S
C1744      C1745   1.412       .  A
C1745      C1746   1.395       .  A
C1745     Br1752   1.922       .  S
C1746      C1747   1.401       .  A
C1746      H1751   1.084       .  S
C1747      C1748   1.410       .  A
C1748     Br1749   1.921       .  S
C1753      C1754   1.402       .  A
C1753      C1758   1.392       .  A
C1753      H1760   1.084       .  S
C1755      C1756   1.407       .  A
C1755     Br1762   1.918       .  S
C1756      H1761   1.083       .  S
C1757      C1758   1.409       .  A
C1758     Br1759   1.923       .  S
C1763      C1764   1.407       .  A
C1763      C1768   1.402       .  A
C1763      H1770   1.083       .  S
C1764      C1765   1.409       .  A
C1765      C1766   1.404       .  A
C1765     Br1772   1.919       .  S
C1766      C1767   1.410       .  A
C1766      H1771   1.083       .  S
C1767      C1768   1.411       .  A
C1768     Br1769   1.920       .  S
C1773      C1774   1.403       .  A
C1773      C1778   1.404   1_455  A
C1773      H1780   1.083       .  S
C1774      C1775   1.407       .  A
C1775      C1776   1.396   1_455  A
C1775     Br1782   1.920       .  S
C1776      C1777   1.401       .  A
C1776      H1781   1.084       .  S
C1777      C1778   1.408       .  A
C1778     Br1779   1.918       .  S
C1783      C1784   1.404       .  A
C1783      C1788   1.399       .  A
C1783      H1790   1.083       .  S
C1784      C1785   1.417       .  A
C1785      C1786   1.404       .  A
C1785     Br1792   1.920       .  S
C1786      C1787   1.406       .  A
C1786      H1791   1.083       .  S
C1787      C1788   1.417       .  A
C1788     Br1789   1.924       .  S
C1793      C1794   1.402       .  A
C1793      C1798   1.389   1_455  A
C1793      H1800   1.083       .  S
C1794      C1795   1.414       .  A
C1795      C1796   1.407   1_455  A
C1795     Br1802   1.918       .  S
C1796      C1797   1.407       .  A
C1796      H1801   1.083       .  S
C1797      C1798   1.416       .  A
C1798     Br1799   1.926   1_545  S
C1803      C1804   1.409       .  A
C1803      C1808   1.405       .  A
C1803      H1810   1.083       .  S
C1804      C1805   1.414       .  A
C1805      C1806   1.399       .  A
C1805     Br1812   1.921       .  S
C1806      C1807   1.407       .  A
C1806      H1811   1.083       .  S
C1807      C1808   1.412       .  A
C1808     Br1809   1.919       .  S
C1813      C1814   1.404       .  A
C1813      C1818   1.395       .  A
C1813      H1820   1.083       .  S
C1814      C1815   1.407       .  A
C1815      C1816   1.396       .  A
C1815     Br1822   1.920       .  S
C1816      C1817   1.405       .  A
C1816      H1821   1.083       .  S
C1817      C1818   1.408       .  A
C1818     Br1819   1.921       .  S
C1823      C1824   1.407       .  A
C1823      C1828   1.401       .  A
C1823      H1830   1.084       .  S
C1824      C1825   1.405       .  A
C1825      C1826   1.403       .  A
C1825     Br1832   1.918       .  S
C1826      C1827   1.409       .  A
C1826      H1831   1.083       .  S
C1827      C1828   1.407       .  A
C1833      C1834   1.403       .  A
C1833      C1838   1.399       .  A
C1833      H1840   1.083       .  S
C1834      C1835   1.417       .  A
C1835      C1836   1.398       .  A
C1835     Br1842   1.923       .  S
C1836      C1837   1.403       .  A
C1836      H1841   1.083       .  S
C1837      C1838   1.417       .  A
C1838     Br1839   1.922       .  S
C1843      C1844   1.403       .  A
C1843      C1848   1.395       .  A
C1843      H1850   1.084       .  S
C1844      C1845   1.412       .  A
C1845      C1846   1.392       .  A
C1845     Br1852   1.923       .  S
C1846      C1847   1.400       .  A
C1846      H1851   1.084       .  S
C1847      C1848   1.410       .  A
C1848     Br1849   1.921       .  S
C1853      C1854   1.406       .  A
C1853      C1858   1.399       .  A
C1853      H1860   1.083       .  S
C1854      C1855   1.414       .  A
C1855      C1856   1.403       .  A
C1855     Br1862   1.921       .  S
C1856      C1857   1.407       .  A
C1856      H1861   1.083       .  S
C1857      C1858   1.415       .  A
C1858     Br1859   1.922       .  S
C1863      C1868   1.404       .  A
C1863      H1870   1.083       .  S
C1864      C1865   1.409       .  A
C1865      C1866   1.393       .  A
C1865     Br1872   1.923       .  S
C1866      C1867   1.401       .  A
C1866      H1871   1.084       .  S
C1868     Br1869   1.916       .  S
C1873      C1874   1.408       .  A
C1873      C1878   1.400       .  A
C1873      H1880   1.083       .  S
C1874      C1875   1.412       .  A
C1875      C1876   1.403       .  A
C1875     Br1882   1.920       .  S
C1876      C1877   1.409       .  A
C1876      H1881   1.083       .  S
C1877      C1878   1.413       .  A
C1878     Br1879   1.921       .  S
C1883      C1884   1.403       .  A
C1883      C1888   1.393       .  A
C1883      H1890   1.083       .  S
C1884      C1885   1.409       .  A
C1885      C1886   1.396       .  A
C1885     Br1892   1.921       .  S
C1886      C1887   1.404       .  A
C1886      H1891   1.083       .  S
C1887      C1888   1.407       .  A
C1888     Br1889   1.921       .  S
C1893      C1894   1.407       .  A
C1893      C1898   1.402       .  A
C1893      H1900   1.083       .  S
C1894      C1895   1.410       .  A
C1895      C1896   1.402       .  A
C1895     Br1902   1.920       .  S
C1896      C1897   1.410       .  A
C1896      H1901   1.083       .  S
C1897      C1898   1.414       .  A
C1898     Br1899   1.921       .  S
C1903      C1904   1.404       .  A
C1903      C1908   1.396       .  A
C1903      H1910   1.083       .  S
C1904      C1905   1.415       .  A
C1905      C1906   1.395       .  A
C1905     Br1912   1.923       .  S
C1906      C1907   1.399       .  A
C1906      H1911   1.084       .  S
C1907      C1908   1.407       .  A
C1908     Br1909   1.920       .  S
C1913      C1914   1.408       .  A
C1913      C1918   1.408       .  A
C1913      H1920   1.083       .  S
C1914      C1915   1.413       .  A
C1915      C1916   1.391       .  A
C1916      C1917   1.403       .  A
C1917      C1918   1.412       .  A
C1918     Br1919   1.918       .  S
C1923      C1928   1.399       .  A
C1923      H1930   1.084       .  S
C1924      C1925   1.404       .  A
C1925     Br1932   1.920       .  S
C1926      C1927   1.408       .  A
C1926      H1931   1.083       .  S
C1927      C1928   1.413       .  A
C1928     Br1929   1.921       .  S
C1933      C1934   1.402       .  A
C1933      C1938   1.398       .  A
C1933      H1940   1.083       .  S
C1934      C1935   1.411       .  A
C1935      C1936   1.408       .  A
C1935     Br1942   1.916       .  S
C1936      C1937   1.405       .  A
C1936      H1941   1.083       .  S
C1937      C1938   1.408       .  A
C1938     Br1939   1.922       .  S
C1943      C1948   1.393       .  A
C1943      H1950   1.084       .  S
C1944      C1945   1.407       .  A
C1945     Br1952   1.921       .  S
C1946      C1947   1.405       .  A
C1946      H1951   1.083       .  S
C1947      C1948   1.412       .  A
C1948     Br1949   1.922       .  S
C1953      C1954   1.403       .  A
C1953      C1958   1.406       .  A
C1953      H1960   1.083       .  S
C1954      C1955   1.412       .  A
C1955      C1956   1.395       .  A
C1955     Br1962   1.923       .  S
C1956      C1957   1.402       .  A
C1956      H1961   1.083       .  S
C1957      C1958   1.416       .  A
C1958     Br1959   1.919       .  S
C1963      C1964   1.404       .  A
C1963      C1968   1.404       .  A
C1963      H1970   1.083       .  S
C1964      C1965   1.415       .  A
C1965      C1966   1.401       .  A
C1965     Br1972   1.922       .  S
C1966      C1967   1.405       .  A
C1966      H1971   1.083       .  S
C1967      C1968   1.417       .  A
C1968     Br1969   1.921       .  S
C1973      C1974   1.406       .  A
C1973      C1978   1.406   1_655  A
C1973      H1980   1.083       .  S
C1974      C1975   1.410       .  A
C1975      C1976   1.393   1_655  A
C1975     Br1982   1.922       .  S
C1976      C1977   1.403       .  A
C1976      H1981   1.084       .  S
C1977      C1978   1.411       .  A
C1978     Br1979   1.918       .  S
C1983      C1984   1.409       .  A
C1983      C1988   1.402       .  A
C1983      H1990   1.083       .  S
C1984      C1985   1.413       .  A
C1985      C1986   1.399       .  A
C1985     Br1992   1.922       .  S
C1986      C1987   1.408       .  A
C1986      H1991   1.083       .  S
C1987      C1988   1.412       .  A
C1988     Br1989   1.920       .  S
C1993      C1994   1.403       .  A
C1993      C1998   1.394       .  A
C1993      H2000   1.083       .  S
C1994      C1995   1.408       .  A
C1995      C1996   1.396       .  A
C1995     Br2002   1.920       .  S
C1996      C1997   1.405       .  A
C1996      H2001   1.083       .  S
C1997      C1998   1.410       .  A
C1998     Br1999   1.921       .  S
C2003      C2004   1.403       .  A
C2003      C2008   1.401       .  A
C2003      H2010   1.083       .  S
C2004      C2005   1.417       .  A
C2005      C2006   1.401       .  A
C2005     Br2012   1.922       .  S
C2006      C2007   1.404       .  A
C2006      H2011   1.083       .  S
C2007      C2008   1.419       .  A
C2008     Br2009   1.923       .  S
C2013      C2014   1.404       .  A
C2013      C2018   1.394       .  A
C2013      H2020   1.083       .  S
C2014      C2015   1.410       .  A
C2015      C2016   1.396       .  A
C2015     Br2022   1.921       .  S
C2016      C2017   1.403       .  A
C2016      H2021   1.083       .  S
C2017      C2018   1.407       .  A
C2018     Br2019   1.921       .  S
C2023      C2024   1.409       .  A
C2023      C2028   1.403       .  A
C2023      H2030   1.083       .  S
C2024      C2025   1.407       .  A
C2025      C2026   1.401       .  A
C2026      C2027   1.406       .  A
C2026      H2031   1.084       .  S
C2027      C2028   1.404       .  A
C2028     Br2029   1.917       .  S
C2033      C2034   1.405       .  A
C2033      C2038   1.405       .  A
C2033      H2040   1.083       .  S
C2035      C2036   1.391       .  A
C2035     Br2042   1.924       .  S
C2036      H2041   1.084       .  S
C2037      C2038   1.410       .  A
C2038     Br2039   1.918       .  S
C2043      C2044   1.402       .  A
C2043      C2048   1.397       .  A
C2043      H2050   1.084       .  S
C2044      C2045   1.413   1_565  A
C2045      C2046   1.403       .  A
C2045     Br2052   1.919       .  S
C2046      C2047   1.402       .  A
C2046      H2051   1.083       .  S
C2047      C2048   1.413   1_545  A
C2048     Br2049   1.921       .  S
C2053      C2054   1.400       .  A
C2053      H2060   1.083       .  S
C2054      C2055   1.408       .  A
C2055     Br2062   1.920       .  S
C2056      C2057   1.400       .  A
C2056      H2061   1.083       .  S
C2057      C2058   1.410       .  A
C2058     Br2059   1.920       .  S
C2063      C2064   1.407       .  A
C2063      C2068   1.399       .  A
C2063      H2070   1.084       .  S
C2064      C2065   1.407       .  A
C2065      C2066   1.402       .  A
C2065     Br2072   1.918       .  S
C2066      C2067   1.408       .  A
C2066      H2071   1.084       .  S
C2067      C2068   1.407       .  A
C2073      C2074   1.400   1_545  A
C2073      C2078   1.396       .  A
C2073      H2080   1.084       .  S
C2074      C2075   1.408       .  A
C2076      C2077   1.403   1_565  A
C2076      H2081   1.083       .  S
C2078     Br2079   1.922       .  S
C2083      C2084   1.404       .  A
C2083      C2088   1.407       .  A
C2083      H2090   1.083       .  S
C2084      C2085   1.416   1_565  A
C2085      C2086   1.398       .  A
C2085     Br2092   1.923       .  S
C2086      C2087   1.402       .  A
C2086      H2091   1.083       .  S
C2087      C2088   1.419   1_545  A
C2088     Br2089   1.921       .  S
C2093      C2094   1.406       .  A
C2093      C2098   1.404       .  A
C2093      H2100   1.083       .  S
C2094      C2095   1.417       .  A
C2095      C2096   1.401       .  A
C2095     Br2102   1.922       .  S
C2096      C2097   1.406       .  A
C2096      H2101   1.083       .  S
C2097      C2098   1.417       .  A
C2098     Br2099   1.921       .  S
C2103      C2104   1.403       .  A
C2103      C2108   1.403   1_455  A
C2103      H2110   1.084       .  S
C2104      C2105   1.406       .  A
C2105      C2106   1.397   1_455  A
C2105     Br2112   1.920       .  S
C2106      C2107   1.405       .  A
C2106      H2111   1.083       .  S
C2107      C2108   1.413       .  A
C2108     Br2109   1.920       .  S
