geometry optimzed in LAMMPS
_audit_creation_date              2020-12-01 
_audit_creation_method            'lammps2cif' 
_symmetry_space_group_name_H-M    'P1' 
_symmetry_Int_Tables_number       1 
_symmetry_cell_setting            triclinic 
loop_ 
_symmetry_equiv_pos_as_xyz 
  x,y,z 
_cell_length_a                    58.51082359 
_cell_length_b                    58.473279182454434 
_cell_length_c                    54.36166605874714 
_cell_angle_alpha                 90.1143698385394 
_cell_angle_beta                  89.7489373019033 
_cell_angle_gamma                 119.79605429746758 
loop_ 
_atom_site_label 
_atom_site_type_symbol 
_atom_site_fract_x 
_atom_site_fract_y 
_atom_site_fract_z 
_atom_site_charge 
O1          O  0.72999824  0.87774490  0.46115077    -0.72200
O2          O  0.70372047  0.92781883  0.45145586    -0.73200
O3          O  0.69292927  0.87948551  0.42920621    -0.61800
O4          O  0.74171689  0.92680769  0.48280152    -0.70200
O5          O  0.77289605  0.94820613  0.45483563    -0.69700
O6          O  0.72525461  0.90120311  0.40235517    -0.61000
O7          O  0.73459567  0.94966833  0.42341106    -0.73500
O8          O  0.76240556  0.89952309  0.43432193    -0.72300
Cu9        Cu  0.71601957  0.90224579  0.45712711     1.04600
Cu10       Cu  0.74985454  0.92544213  0.42773134     1.04300
C11         C  0.75020897  0.88055542  0.44955146     0.94000
C12         C  0.71463396  0.94653400  0.43593564     0.93200
C13         C  0.70196809  0.88271835  0.40722852     0.85300
C14         C  0.76503224  0.94499278  0.47713295     0.91600
O15         O  0.59461416  0.03096225  0.39682423    -0.72200
O16         O  0.54696526  0.05911000  0.38288562    -0.73200
O17         O  0.59667727  0.06894106  0.36345059    -0.61800
O18         O  0.54609548  0.02223192  0.41718741    -0.70200
O19         O  0.56848871  0.05367336  0.44449249    -0.69700
O20         O  0.61656066  0.09983964  0.39173148    -0.61000
O21         O  0.56738493  0.09064838  0.41061585    -0.73500
O22         O  0.61719132  0.06237722  0.42406097    -0.72300
Cu23       Cu  0.57031113  0.04420840  0.38916811     1.04600
Cu24       Cu  0.59307726  0.07773261  0.41870305     1.04300
C25         C  0.61352983  0.04195327  0.41206956     0.94000
C26         C  0.54940261  0.07922136  0.39432562     0.93200
C27         C  0.61506164  0.09198642  0.36957988     0.85300
C28         C  0.54964784  0.03069852  0.43940991     0.91600
O29         O  0.08987746  0.27560593  0.93376608    -0.72200
O30         O  0.04041441  0.22681472  0.98740754    -0.73200
O31         O  0.08929311  0.23676763  0.96504294    -0.61800
O32         O  0.04168380  0.26679847  0.95691832    -0.70200
O33         O  0.01857057  0.23638331  0.92906295    -0.69700
O34         O  0.06714336  0.20602851  0.93704503    -0.61000
O35         O  0.01902286  0.19662997  0.95872606    -0.73500
O36         O  0.06627608  0.24461258  0.90659812    -0.72300
Cu37       Cu  0.06608980  0.25258183  0.96179925     1.04600
Cu38       Cu  0.04194929  0.21993438  0.93190459     1.04300
C39         C  0.08594062  0.26716229  0.91152444     0.94000
C40         C  0.02192863  0.20385343  0.98116659     0.93200
C41         C  0.08628437  0.21718296  0.95220050     0.85300
C42         C  0.02236195  0.25628927  0.94204870     0.91600
O43         O  0.90041942  0.37568788  0.86869011    -0.72200
O44         O  0.94670049  0.42704217  0.92254282    -0.73200
O45         O  0.93964089  0.37894136  0.90151977    -0.61800
O46         O  0.90844151  0.42507875  0.88905992    -0.70200
O47         O  0.87620915  0.40208505  0.91571664    -0.69700
O48         O  0.90934024  0.35707541  0.92992475    -0.61000
O49         O  0.91434225  0.40483227  0.94922509    -0.73500
O50         O  0.87055295  0.35396847  0.89744101    -0.72300
Cu51       Cu  0.92492770  0.40255498  0.89446031     1.04600
Cu52       Cu  0.89161437  0.37879360  0.92401252     1.04300
C53         C  0.87822612  0.35595115  0.87514947     0.94000
C54         C  0.93722637  0.42400553  0.94438710     0.93200
C55         C  0.92937898  0.36046125  0.91737729     0.85300
C56         C  0.88752508  0.42097350  0.90026416     0.91600
O57         O  0.27062343  0.08604263  0.58338076    -0.72200
O58         O  0.22759512  0.03650211  0.52791070    -0.73200
O59         O  0.23637488  0.08608582  0.54702010    -0.61800
O60         O  0.26321700  0.03763277  0.56362020    -0.70200
O61         O  0.23042128  0.01484248  0.58960089    -0.69700
O62         O  0.20363718  0.06561679  0.57365441    -0.61000
O63         O  0.19514154  0.01636393  0.55485193    -0.73500
O64         O  0.23777497  0.06315345  0.60945554    -0.72300
Cu65       Cu  0.25062533  0.06230573  0.55460547     1.04600
Cu66       Cu  0.21556129  0.03924409  0.58275539     1.04300
C67         C  0.26075816  0.08231287  0.60510147     0.94000
C68         C  0.20417353  0.01820600  0.53309558     0.93200
C69         C  0.21614864  0.08410654  0.55791699     0.85300
C70         C  0.25142405  0.01850970  0.57866462     0.91600
O71         O  0.35328761  0.90501447  0.59300166    -0.72200
O72         O  0.40570786  0.88112228  0.61039263    -0.73200
O73         O  0.35519253  0.86949879  0.62740810    -0.61800
O74         O  0.40354476  0.91520660  0.57504169    -0.70200
O75         O  0.42432218  0.94882112  0.60063957    -0.69700
O76         O  0.37388323  0.90181454  0.65459347    -0.61000
O77         O  0.42473373  0.91406672  0.63685732    -0.73500
O78         O  0.37391118  0.93767275  0.61955276    -0.72300
Cu79       Cu  0.37877626  0.89164460  0.60052416     1.04600
Cu80       Cu  0.39985818  0.92678740  0.62881979     1.04300
C81         C  0.35531044  0.92523069  0.60422086     0.94000
C82         C  0.42359166  0.89400536  0.62643321     0.93200
C83         C  0.35655545  0.87801973  0.64922842     0.85300
C84         C  0.42204468  0.93860282  0.57925323     0.91600
O85         O  0.38914227  0.23054527  0.73281277    -0.72200
O86         O  0.43732766  0.28096846  0.78264298    -0.73200
O87         O  0.42539327  0.22983528  0.76713414    -0.61800
O88         O  0.39979024  0.28137112  0.74988929    -0.70200
O89         O  0.36884656  0.26096924  0.77817213    -0.69700
O90         O  0.39397723  0.21180728  0.79529289    -0.61000
O91         O  0.40661860  0.26279408  0.81141855    -0.73500
O92         O  0.35755671  0.21075029  0.76058049    -0.72300
Cu93       Cu  0.41400842  0.25630654  0.75708007     1.04600
Cu94       Cu  0.38067579  0.23597340  0.78728670     1.04300
C95         C  0.36598746  0.21244060  0.73847210     0.94000
C96         C  0.42993894  0.28023900  0.80482238     0.93200
C97         C  0.41364693  0.21279846  0.78426525     0.85300
C98         C  0.37979312  0.27891805  0.76193384     0.91600
O99         O  0.21276877  0.39307357  0.71844805    -0.72200
O100        O  0.26162430  0.36573546  0.72929773    -0.73200
O101        O  0.21190137  0.35401200  0.75013681    -0.61800
O102        O  0.26232399  0.40513518  0.69898913    -0.70200
O103        O  0.28165985  0.43522685  0.72813814    -0.69700
O104        O  0.23223943  0.38513681  0.77830434    -0.61000
O105        O  0.28210816  0.39563846  0.75837998    -0.73500
O106        O  0.23188614  0.42380336  0.74718290    -0.72300
Cu107      Cu  0.23641780  0.37837552  0.72331565     1.04600
Cu108      Cu  0.25768835  0.41089273  0.75413238     1.04300
C109        C  0.21479698  0.41292705  0.73013030     0.94000
C110        C  0.28009467  0.37665946  0.74495442     0.93200
C111        C  0.21382957  0.36223099  0.77230902     0.85300
C112        C  0.27986962  0.42834414  0.70562871     0.91600
O113        O  0.76015231  0.61086002  0.26292217    -0.72200
O114        O  0.70559411  0.56397139  0.31364954    -0.73200
O115        O  0.75562514  0.57292841  0.29735335    -0.61800
O116        O  0.71023601  0.60289609  0.27980791    -0.70200
O117        O  0.69008696  0.57212600  0.25124456    -0.69700
O118        O  0.73724722  0.54183491  0.26895989    -0.61000
O119        O  0.68716113  0.53339814  0.28484137    -0.73500
O120        O  0.73954423  0.57971262  0.23479160    -0.72300
Cu121      Cu  0.73359448  0.58876161  0.28938041     1.04600
Cu122      Cu  0.71280654  0.55567495  0.25896994     1.04300
C123        C  0.75827871  0.60236529  0.24086443     0.94000
C124        C  0.68765633  0.54096175  0.30698592     0.93200
C125        C  0.75420061  0.55312145  0.28608250     0.85300
C126        C  0.69278168  0.59222396  0.26316851     0.91600
O127        O  0.57356121  0.68785959  0.25557231    -0.72200
O128        O  0.54275058  0.73486913  0.23946047    -0.73200
O129        O  0.53606910  0.68624245  0.22163939    -0.61800
O130        O  0.58019070  0.73681437  0.27374370    -0.70200
O131        O  0.61199779  0.75932987  0.24671628    -0.69700
O132        O  0.56823220  0.70643104  0.19429441    -0.61000
O133        O  0.57456353  0.75514631  0.21187360    -0.73500
O134        O  0.60600160  0.71074544  0.22916063    -0.72300
Cu135      Cu  0.55703270  0.71066711  0.24857168     1.04600
Cu136      Cu  0.59127800  0.73362738  0.21956573     1.04300
C137        C  0.59479936  0.69207401  0.24476729     0.94000
C138        C  0.55418666  0.75265996  0.22300105     0.93200
C139        C  0.54503354  0.68805304  0.19984862     0.85300
C140        C  0.60282243  0.75638012  0.26860136     0.91600
O141        O  0.06112545  0.57371740  0.07173831    -0.72200
O142        O  0.11161721  0.62277000  0.12260758    -0.73200
O143        O  0.09960128  0.57223891  0.10320327    -0.61800
O144        O  0.07240538  0.62362249  0.09183140    -0.70200
O145        O  0.04182814  0.60185058  0.12011741    -0.69700
O146        O  0.06961216  0.55383096  0.13257215    -0.61000
O147        O  0.08103478  0.60350065  0.15137131    -0.73500
O148        O  0.03129509  0.55253567  0.10083440    -0.72300
Cu149      Cu  0.08733405  0.59885400  0.09628301     1.04600
Cu150      Cu  0.05500163  0.57732452  0.12716789     1.04300
C151        C  0.03843511  0.55512482  0.07826016     0.94000
C152        C  0.10427256  0.62122390  0.14500369     0.93200
C153        C  0.08841036  0.55466055  0.11995993     0.85300
C154        C  0.05233666  0.62032714  0.10430436     0.91600
O155        O  0.90264373  0.72462159  0.10697703    -0.72200
O156        O  0.95237911  0.77223742  0.05685690    -0.73200
O157        O  0.90208433  0.76094892  0.07279297    -0.61800
O158        O  0.95289675  0.73526580  0.08994132    -0.70200
O159        O  0.93398885  0.70413891  0.06155988    -0.69700
O160        O  0.88410094  0.72921632  0.04489142    -0.61000
O161        O  0.93473083  0.74153720  0.02808080    -0.73500
O162        O  0.88309933  0.69228542  0.07998340    -0.72300
Cu163      Cu  0.92807019  0.74925247  0.08264292     1.04600
Cu164      Cu  0.90824161  0.71557651  0.05270941     1.04300
C165        C  0.88485156  0.70115305  0.10191987     0.94000
C166        C  0.95180031  0.76495759  0.03465527     0.93200
C167        C  0.88562547  0.74944479  0.05536424     0.85300
C168        C  0.95169705  0.71590241  0.07781221     0.91600
O169        O  0.49969342  0.86773945  0.11944883    -0.72200
O170        O  0.49510270  0.91337050  0.06807043    -0.73200
O171        O  0.53636385  0.90478196  0.08540054    -0.61800
O172        O  0.45888996  0.87700263  0.10246835    -0.70200
O173        O  0.47170793  0.90845657  0.13049984    -0.69700
O174        O  0.54681690  0.93679147  0.11239533    -0.61000
O175        O  0.50516618  0.94506666  0.09553897    -0.73500
O176        O  0.51254086  0.89937369  0.14731878    -0.72300
Cu177      Cu  0.49713920  0.88960271  0.09288941     1.04600
Cu178      Cu  0.50950509  0.92352681  0.12235763     1.04300
C179        C  0.50700789  0.87600359  0.14134047     0.94000
C180        C  0.49851338  0.93603156  0.07369719     0.93200
C181        C  0.55390226  0.92534454  0.09656468     0.85300
C182        C  0.45324892  0.88888847  0.11920058     0.91600
O183        O  0.76089238  0.03599929  0.05636803    -0.72200
O184        O  0.83838946  0.07824661  0.04482439    -0.73200
O185        O  0.79731821  0.03132922  0.02509723    -0.61800
O186        O  0.80261825  0.08310756  0.07782458    -0.70200
O187        O  0.80720124  0.05843195  0.10610113    -0.69700
O188        O  0.80551167  0.00930005  0.05352810    -0.61000
O189        O  0.84589552  0.05662989  0.07432161    -0.73500
O190        O  0.76669072  0.01149245  0.08387301    -0.72300
Cu191      Cu  0.79957328  0.05805017  0.05015046     1.04600
Cu192      Cu  0.80654293  0.03318757  0.08050795     1.04300
C193        C  0.75127832  0.01661160  0.07129703     0.94000
C194        C  0.85432381  0.07382734  0.05706249     0.93200
C195        C  0.80109398  0.01229918  0.03113066     0.85300
C196        C  0.80548057  0.07868703  0.10039371     0.91600
O197        O  0.79048768  0.23002451  0.26522781    -0.72200
O198        O  0.86786139  0.27741740  0.24622947    -0.73200
O199        O  0.82623491  0.22673543  0.23095534    -0.61800
O200        O  0.83161538  0.28065751  0.27952150    -0.70200
O201        O  0.84294747  0.26156096  0.30838098    -0.69700
O202        O  0.83875655  0.20741037  0.25851053    -0.61000
O203        O  0.87852960  0.25796274  0.27529493    -0.73500
O204        O  0.80325043  0.21072381  0.29266507    -0.72300
Cu205      Cu  0.82863022  0.25430567  0.25441251     1.04600
Cu206      Cu  0.84124745  0.23374690  0.28466558     1.04300
C207        C  0.78491517  0.21289295  0.28225635     0.94000
C208        C  0.88545056  0.27537315  0.25847387     0.93200
C209        C  0.83149149  0.20863163  0.23658105     0.85300
C210        C  0.83814366  0.27977813  0.30169947     0.91600
O211        O  0.13149474  0.40937820  0.19410336    -0.72200
O212        O  0.13175594  0.36265598  0.24829149    -0.73200
O213        O  0.09318927  0.37090673  0.22514463    -0.61800
O214        O  0.16970134  0.40024676  0.21634432    -0.70200
O215        O  0.17922945  0.43186545  0.24363875    -0.69700
O216        O  0.09943936  0.40155473  0.25244977    -0.61000
O217        O  0.13930831  0.39367619  0.27566014    -0.73500
O218        O  0.14005437  0.44053885  0.22176465    -0.72300
Cu219      Cu  0.13129421  0.38480192  0.22011841     1.04600
Cu220      Cu  0.13975946  0.41804685  0.24942165     1.04300
C221        C  0.13572159  0.43244101  0.19956224     0.94000
C222        C  0.13592121  0.37087754  0.27055833     0.93200
C223        C  0.08375596  0.38116697  0.23979714     0.85300
C224        C  0.18673801  0.42036024  0.22810771     0.91600
O225        O  0.13117314  0.23436564  0.45611286    -0.72200
O226        O  0.20758975  0.26269497  0.44370988    -0.73200
O227        O  0.16785205  0.27174819  0.42321987    -0.61800
O228        O  0.17014424  0.22400342  0.47592049    -0.70200
O229        O  0.16146733  0.19346256  0.44763897    -0.69700
O230        O  0.15630393  0.23947606  0.39608151    -0.61000
O231        O  0.19856064  0.23273330  0.41470473    -0.73500
O232        O  0.12070496  0.20174015  0.42960090    -0.72300
Cu233      Cu  0.16955909  0.24927376  0.45068862     1.04600
Cu234      Cu  0.15901736  0.21578144  0.42099019     1.04300
C235        C  0.11388764  0.21380146  0.44506740     0.94000
C236        C  0.21539136  0.25250138  0.42730219     0.93200
C237        C  0.16059212  0.26251482  0.40150010     0.85300
C238        C  0.16617147  0.20108641  0.46998253     0.91600
O239        O  0.49641124  0.42492911  0.37406983    -0.72200
O240        O  0.42041394  0.37530795  0.38640798    -0.73200
O241        O  0.45847047  0.42484724  0.40685565    -0.61800
O242        O  0.45890482  0.37486785  0.35464561    -0.70200
O243        O  0.46941542  0.35566468  0.38405924    -0.69700
O244        O  0.46737362  0.40319366  0.43516694    -0.61000
O245        O  0.42917314  0.35372120  0.41478550    -0.73500
O246        O  0.50721333  0.40532427  0.40289754    -0.72300
Cu247      Cu  0.45814834  0.40070173  0.37955775     1.04600
Cu248      Cu  0.46865616  0.37881638  0.41024809     1.04300
C249        C  0.51397924  0.42305356  0.38621047     0.94000
C250        C  0.41239856  0.35652163  0.40194921     0.93200
C251        C  0.46292946  0.42172002  0.42932548     0.85300
C252        C  0.46449044  0.35725875  0.36150335     0.91600
O253        O  0.50832322  0.59436868  0.64629782    -0.72200
O254        O  0.49904592  0.54192759  0.59214542    -0.73200
O255        O  0.54121392  0.59032883  0.61027692    -0.61800
O256        O  0.46636049  0.54549680  0.62994647    -0.70200
O257        O  0.45399267  0.56624933  0.60372722    -0.69700
O258        O  0.53126665  0.61310850  0.58418266    -0.61000
O259        O  0.48808753  0.56463320  0.56697113    -0.73500
O260        O  0.49609520  0.61501050  0.61979657    -0.72300
Cu261      Cu  0.50410426  0.56719407  0.62049307     1.04600
Cu262      Cu  0.49196791  0.59043300  0.59268649     1.04300
C263        C  0.50337663  0.61289797  0.64131408     0.94000
C264        C  0.49199804  0.54534642  0.57077661     0.93200
C265        C  0.54849268  0.60916453  0.59492754     0.85300
C266        C  0.44837491  0.54902048  0.62068251     0.91600
O267        O  0.79404740  0.74019498  0.53197081    -0.72200
O268        O  0.79617647  0.69092388  0.58345464    -0.73200
O269        O  0.75658509  0.70028970  0.56312338    -0.61800
O270        O  0.83329517  0.73030541  0.55179799    -0.70200
O271        O  0.84308108  0.76081514  0.58036828    -0.69700
O272        O  0.76389326  0.72979771  0.59202830    -0.61000
O273        O  0.80447765  0.72142281  0.61164472    -0.73500
O274        O  0.80265722  0.76950970  0.56147267    -0.72300
Cu275      Cu  0.79476825  0.71441617  0.55660815     1.04600
Cu276      Cu  0.80384325  0.74642788  0.58738872     1.04300
C277        C  0.79761524  0.76264942  0.53897986     0.94000
C278        C  0.80088363  0.69871640  0.60583971     0.93200
C279        C  0.74772634  0.71017960  0.57888645     0.85300
C280        C  0.85045137  0.74988399  0.56412373     0.91600
O281        O  0.83348173  0.52904066  0.78384572    -0.72200
O282        O  0.82738347  0.57664766  0.73560697    -0.73200
O283        O  0.86982171  0.56860413  0.75168187    -0.61800
O284        O  0.79153639  0.53797825  0.76909892    -0.70200
O285        O  0.80371787  0.56914461  0.79733678    -0.69700
O286        O  0.87916918  0.59861052  0.78057855    -0.61000
O287        O  0.83846111  0.60798102  0.76363945    -0.73500
O288        O  0.84433464  0.55903866  0.81307949    -0.72300
Cu289      Cu  0.83019289  0.55204160  0.75898183     1.04600
Cu290      Cu  0.84178105  0.58471631  0.78960585     1.04300
C291        C  0.84033430  0.53642548  0.80595641     0.94000
C292        C  0.83126416  0.59937225  0.74173190     0.93200
C293        C  0.88690195  0.58827783  0.76424542     0.85300
C294        C  0.78549953  0.54929867  0.78614310     0.91600
O295        O  0.14182586  0.72768229  0.77447165    -0.72200
O296        O  0.14015043  0.68252160  0.71880242    -0.73200
O297        O  0.18015204  0.73061932  0.74061399    -0.61800
O298        O  0.10115932  0.68071175  0.75187679    -0.70200
O299        O  0.09248107  0.70455556  0.72604246    -0.69700
O300        O  0.16881860  0.75185146  0.71413750    -0.61000
O301        O  0.12900178  0.70388929  0.69216981    -0.73500
O302        O  0.13270040  0.75138784  0.74889675    -0.72300
Cu303      Cu  0.14109794  0.70447126  0.74729367     1.04600
Cu304      Cu  0.13045776  0.72870807  0.71942482     1.04300
C305        C  0.13833933  0.74720687  0.77062777     0.94000
C306        C  0.13395652  0.68534991  0.69699286     0.93200
C307        C  0.18669542  0.74981347  0.72561183     0.85300
C308        C  0.08439572  0.68497744  0.74054769     0.91600
O309        O  0.51417275  0.09694152  0.90545411    -0.72200
O310        O  0.43699949  0.06957865  0.92268574    -0.73200
O311        O  0.47866367  0.06306653  0.94220326    -0.61800
O312        O  0.47290636  0.10418642  0.88647949    -0.70200
O313        O  0.46092500  0.07076068  0.86065033    -0.69700
O314        O  0.46787941  0.02961324  0.91680228    -0.61000
O315        O  0.42715756  0.03643656  0.89707128    -0.73500
O316        O  0.50209824  0.06353537  0.87967288    -0.72300
Cu317      Cu  0.47612775  0.08467881  0.91510237     1.04600
Cu318      Cu  0.46415757  0.04892115  0.88776673     1.04300
C319        C  0.52016115  0.08449723  0.88958674     0.94000
C320        C  0.41986361  0.04847226  0.91195626     0.93200
C321        C  0.47419026  0.03968543  0.93835390     0.85300
C322        C  0.46582698  0.09425833  0.86501873     0.91600
O323        O  0.20562968  0.94760514  0.91799962    -0.72200
O324        O  0.12719474  0.90049717  0.93148498    -0.73200
O325        O  0.16754155  0.94987896  0.94903847    -0.61800
O326        O  0.16508643  0.89862647  0.89907032    -0.70200
O327        O  0.17337539  0.87690523  0.92781985    -0.69700
O328        O  0.17788260  0.93031733  0.97826358    -0.61000
O329        O  0.13804274  0.88112900  0.96048770    -0.73500
O330        O  0.21391675  0.92582874  0.94657017    -0.72300
Cu331      Cu  0.16604627  0.92485543  0.92331829     1.04600
Cu332      Cu  0.17611496  0.90281294  0.95422164     1.04300
C333        C  0.22216017  0.94416539  0.93058661     0.94000
C334        C  0.12049123  0.88342496  0.94874739     0.93200
C335        C  0.17319547  0.94854508  0.97141897     0.85300
C336        C  0.16850695  0.87954089  0.90537075     0.91600
O337        O  0.54431935  0.49557172  0.91795139    -0.72200
O338        O  0.59353037  0.49801433  0.86390028    -0.73200
O339        O  0.54468284  0.45845467  0.88524473    -0.61800
O340        O  0.59243844  0.53541287  0.89573003    -0.70200
O341        O  0.61480438  0.52700474  0.92359186    -0.69700
O342        O  0.56731293  0.44871252  0.91177573    -0.61000
O343        O  0.61556700  0.48899095  0.89168787    -0.73500
O344        O  0.56649236  0.48556448  0.94471058    -0.72300
Cu345      Cu  0.56793102  0.49715221  0.88978452     1.04600
Cu346      Cu  0.59182801  0.48730852  0.91894045     1.04300
C347        C  0.54716639  0.48907940  0.93974216     0.94000
C348        C  0.61277724  0.49446351  0.86960029     0.93200
C349        C  0.54813288  0.44145008  0.89678078     0.85300
C350        C  0.61159766  0.54357069  0.91073630     0.91600
O351        O  0.73580071  0.78656068  0.98099338    -0.72200
O352        O  0.68989364  0.78943493  0.92605993    -0.73200
O353        O  0.69718453  0.74925720  0.94839733    -0.61800
O354        O  0.72694808  0.82625821  0.95946696    -0.70200
O355        O  0.75828502  0.83565186  0.93179553    -0.69700
O356        O  0.72833302  0.75695708  0.92111100    -0.61000
O357        O  0.72137757  0.79717362  0.89902799    -0.73500
O358        O  0.76647501  0.79583763  0.95261539    -0.72300
Cu359      Cu  0.71131491  0.78753208  0.95466878     1.04600
Cu360      Cu  0.74468006  0.79664081  0.92522735     1.04300
C361        C  0.75891345  0.79113912  0.97498513     0.94000
C362        C  0.69871168  0.79408015  0.90389665     0.93200
C363        C  0.70786066  0.74063209  0.93331637     0.85300
C364        C  0.74692193  0.84324131  0.94739244     0.91600
O365        O  0.73715105  0.14159572  0.73823802    -0.72200
O366        O  0.69046910  0.14247573  0.79102468    -0.73200
O367        O  0.74077220  0.18063731  0.77195915    -0.61800
O368        O  0.68740773  0.10232633  0.75841676    -0.70200
O369        O  0.70933653  0.09246164  0.78535717    -0.69700
O370        O  0.76073689  0.16788557  0.79856404    -0.61000
O371        O  0.71039897  0.13058946  0.81852219    -0.73500
O372        O  0.75873421  0.13029655  0.76437675    -0.72300
Cu373      Cu  0.71323295  0.14215055  0.76392932     1.04600
Cu374      Cu  0.73544243  0.12987699  0.79261383     1.04300
C375        C  0.75565187  0.13663749  0.74259526     0.94000
C376        C  0.69269551  0.13658264  0.81308738     0.93200
C377        C  0.75935729  0.18633550  0.78748401     0.85300
C378        C  0.69027528  0.08492527  0.77028292     0.91600
O379        O  0.57453042  0.80296922  0.71254471    -0.72200
O380        O  0.60451767  0.87890168  0.72894809    -0.73200
O381        O  0.61078566  0.83651256  0.74798805    -0.61800
O382        O  0.56715164  0.84444338  0.69462053    -0.70200
O383        O  0.53451731  0.83245418  0.72150122    -0.69700
O384        O  0.57795254  0.82566396  0.77429929    -0.61000
O385        O  0.57229818  0.86903048  0.75567529    -0.73500
O386        O  0.54178437  0.79052744  0.73917293    -0.72300
Cu387      Cu  0.59033956  0.84105724  0.72017790     1.04600
Cu388      Cu  0.55551986  0.82913068  0.74866788     1.04300
C389        C  0.55394632  0.78465411  0.72288226     0.94000
C390        C  0.59305105  0.88637126  0.74431870     0.93200
C391        C  0.60073992  0.82894787  0.76946903     0.85300
C392        C  0.54381110  0.83959305  0.69985476     0.91600
O393        O  0.87732937  0.16732351  0.57963820    -0.72200
O394        O  0.93108555  0.17323224  0.52854520    -0.73200
O395        O  0.88157026  0.13270812  0.54540901    -0.61800
O396        O  0.92684259  0.20862590  0.56180191    -0.70200
O397        O  0.94806789  0.19877467  0.58967346    -0.69700
O398        O  0.90062294  0.12117956  0.57415059    -0.61000
O399        O  0.94998597  0.16179419  0.55745394    -0.73500
O400        O  0.89883291  0.15785175  0.60760188    -0.72300
Cu401      Cu  0.90343689  0.17084231  0.55291033     1.04600
Cu402      Cu  0.92500761  0.15953727  0.58324280     1.04300
C403        C  0.87991768  0.16171813  0.60186273     0.94000
C404        C  0.94907426  0.16815549  0.53521301     0.93200
C405        C  0.88401300  0.11491455  0.55660636     0.85300
C406        C  0.94504749  0.21599731  0.57779637     0.91600
O407        O  0.06772123  0.42803559  0.59022712    -0.72200
O408        O  0.09562273  0.50588381  0.60259495    -0.73200
O409        O  0.10370955  0.46614496  0.62375623    -0.61800
O410        O  0.05986271  0.46827151  0.56811422    -0.70200
O411        O  0.02711649  0.45850388  0.59422343    -0.69700
O412        O  0.07065859  0.45459609  0.65010539    -0.61000
O413        O  0.06282243  0.49472828  0.62895477    -0.73500
O414        O  0.03485112  0.41800956  0.61634181    -0.72300
Cu415      Cu  0.08281362  0.46737240  0.59521106     1.04600
Cu416      Cu  0.04766436  0.45611970  0.62321975     1.04300
C417        C  0.04736945  0.41080246  0.60193886     0.94000
C418        C  0.08353543  0.51249996  0.61822410     0.93200
C419        C  0.09418637  0.45976995  0.64545908     0.85300
C420        C  0.03675523  0.46447829  0.57242495     0.91600
O421        O  0.90698279  0.46633031  0.38040160    -0.75800
O422        O  0.93500490  0.54146795  0.39777555    -0.73200
O423        O  0.94267202  0.50018653  0.41655006    -0.61800
O424        O  0.89899997  0.50779606  0.36256411    -0.70200
O425        O  0.86662803  0.49529883  0.38973551    -0.69700
O426        O  0.90975093  0.48876623  0.44285133    -0.61000
O427        O  0.90249181  0.53109759  0.42424818    -0.73500
O428        O  0.87411555  0.45348667  0.40698985    -0.72300
Cu429      Cu  0.92205322  0.50428072  0.38849165     1.04600
Cu430      Cu  0.88713408  0.49175362  0.41694172     1.04300
C431        C  0.88642043  0.44787106  0.39065319     0.94000
C432        C  0.92292087  0.54860637  0.41277217     0.93200
C433        C  0.93292257  0.49298236  0.43818992     0.85300
C434        C  0.87575063  0.50301630  0.36810363     0.91600
O435        O  0.03694187  0.75153509  0.45177917    -0.72200
O436        O  0.08685842  0.82728457  0.46562596    -0.73200
O437        O  0.03823729  0.78788724  0.48723295    -0.61800
O438        O  0.08474313  0.79157592  0.42908319    -0.70200
O439        O  0.06186331  0.80267004  0.40445988    -0.69700
O440        O  0.01719308  0.79988405  0.46112798    -0.61000
O441        O  0.06532512  0.83945062  0.44033678    -0.73500
O442        O  0.01419471  0.76215164  0.42638962    -0.72300
Cu443      Cu  0.06249733  0.78913228  0.45925339     1.04600
Cu444      Cu  0.03883796  0.80136707  0.43224332     1.04300
C445        C  0.01745318  0.74460536  0.43739763     0.94000
C446        C  0.08439410  0.84546733  0.45526206     0.93200
C447        C  0.02006240  0.79349946  0.48285514     0.85300
C448        C  0.08096756  0.79839825  0.40768362     0.91600
O449        O  0.43592963  0.18092042  0.26532015    -0.72200
O450        O  0.40058239  0.10195597  0.25371756    -0.73200
O451        O  0.39499394  0.14425232  0.23414966    -0.61800
O452        O  0.44173767  0.13888301  0.28348369    -0.70200
O453        O  0.41331035  0.13155608  0.31357864    -0.69700
O454        O  0.36489878  0.13696735  0.26252436    -0.61000
O455        O  0.37158731  0.09529222  0.28302007    -0.73500
O456        O  0.40576004  0.17258393  0.29409862    -0.72300
Cu457      Cu  0.41924039  0.14172880  0.25814714     1.04600
Cu458      Cu  0.38783929  0.13389521  0.28932483     1.04300
C459        C  0.42591776  0.18896276  0.28182219     0.94000
C460        C  0.38093539  0.08609892  0.26708432     0.93200
C461        C  0.37271394  0.14169182  0.24006442     0.85300
C462        C  0.43527968  0.13410969  0.30609210     0.91600
O463        O  0.28744288  0.87216945  0.26144436    -0.72200
O464        O  0.23681144  0.79428996  0.24951909    -0.73200
O465        O  0.28713684  0.83288888  0.23072378    -0.61800
O466        O  0.23751649  0.83357073  0.28154080    -0.70200
O467        O  0.21678649  0.84314452  0.25281895    -0.69700
O468        O  0.26738262  0.84319920  0.20172585    -0.61000
O469        O  0.21714705  0.80523179  0.22088478    -0.73500
O470        O  0.26686206  0.88160862  0.23250230    -0.72300
Cu471      Cu  0.26287792  0.83285130  0.25686927     1.04600
Cu472      Cu  0.24133241  0.84365218  0.22605754     1.04300
C473        C  0.28548428  0.88913005  0.24806431     0.94000
C474        C  0.21888557  0.78760328  0.23314749     0.93200
C475        C  0.28571358  0.83861599  0.20835103     0.85300
C476        C  0.21894898  0.83781416  0.27524609     0.91600
O477        O  0.24626670  0.16017881  0.10749819    -0.72200
O478        O  0.19827278  0.16388198  0.05775228    -0.73200
O479        O  0.20851142  0.12345143  0.07372820    -0.61800
O480        O  0.23678590  0.20126577  0.09054010    -0.70200
O481        O  0.26735443  0.21146932  0.06195100    -0.69700
O482        O  0.24036540  0.13637438  0.04604595    -0.61000
O483        O  0.22899295  0.17536478  0.02907705    -0.73500
O484        O  0.27817219  0.17218908  0.07989580    -0.72300
Cu485      Cu  0.22140544  0.16182574  0.08344661     1.04600
Cu486      Cu  0.25476730  0.17424903  0.05332570     1.04300
C487        C  0.26951596  0.16518348  0.10186080     0.94000
C488        C  0.20574687  0.17001971  0.03549527     0.93200
C489        C  0.22028927  0.11786935  0.05680267     0.85300
C490        C  0.25659281  0.21870242  0.07830653     0.91600
O491        O  0.37765995  0.42207311  0.12182601    -0.72200
O492        O  0.42586115  0.49796014  0.13560177    -0.73200
O493        O  0.37599537  0.45886884  0.15475932    -0.61800
O494        O  0.42693828  0.46179379  0.10152856    -0.70200
O495        O  0.40448610  0.47093260  0.07433346    -0.69700
O496        O  0.35695844  0.47102846  0.12654451    -0.61000
O497        O  0.40644847  0.50953956  0.10732561    -0.73500
O498        O  0.35570358  0.43195559  0.09484277    -0.72300
Cu499      Cu  0.40237508  0.45980295  0.12939038     1.04600
Cu500      Cu  0.38021489  0.47123155  0.09981060     1.04300
C501        C  0.35869021  0.41469831  0.10671730     0.94000
C502        C  0.42426560  0.51587059  0.12373572     0.93200
C503        C  0.35823499  0.46453143  0.14864652     0.85300
C504        C  0.42347362  0.46696097  0.07938293     0.91600
C505        C  0.32372630  0.33989642  0.11379439    -0.13600
C506        C  0.30701195  0.33162797  0.09344462     0.16800
C507        C  0.30608407  0.35063734  0.07824161     0.03100
C508        C  0.32277097  0.37755262  0.08299226    -0.12100
C509        C  0.34034229  0.38600675  0.10293454    -0.03200
C510        C  0.34014524  0.36666531  0.11881294     0.02300
C511        C  0.29204262  0.30306914  0.08795231     0.09200
N512        N  0.28777594  0.34294287  0.05841791     0.65500
H513        H  0.32201741  0.39187610  0.07088057     0.18400
N514        N  0.35612730  0.37366171  0.14036674     0.76000
H515        H  0.32431734  0.32536130  0.12575587     0.09900
C516        C  0.30057875  0.29228772  0.06935491     0.03600
C517        C  0.28840521  0.26498810  0.06656676    -0.05100
C518        C  0.26773323  0.24761933  0.08217936    -0.23500
C519        C  0.25893916  0.25856086  0.10066081     0.12900
C520        C  0.27121237  0.28607636  0.10341117    -0.12600
N521        N  0.32269251  0.30870973  0.05408885     0.64600
H522        H  0.29578450  0.25743733  0.05220735     0.12400
N523        N  0.23810738  0.24222188  0.11714164     0.61200
H524        H  0.26483330  0.29424755  0.11808401     0.08600
O525        O  0.37793599  0.37418695  0.13951192    -0.40300
O526        O  0.34584426  0.37286867  0.16101851    -0.39400
O527        O  0.26495032  0.33924384  0.06257654    -0.39400
O528        O  0.29609332  0.34612207  0.03654379    -0.37100
O529        O  0.24362898  0.23716887  0.13812414    -0.38000
O530        O  0.21515612  0.23811725  0.11307384    -0.34200
O531        O  0.34531397  0.31330418  0.06040720    -0.35600
O532        O  0.31886577  0.31267412  0.03207146    -0.39900
C533        C  0.32685661  0.17208778  0.14108667    -0.13600
C534        C  0.31333342  0.15340243  0.15971061     0.16800
C535        C  0.28556198  0.13880494  0.15879433     0.03100
C536        C  0.27208796  0.14318433  0.13985029    -0.12100
C537        C  0.28550984  0.16165445  0.12113063    -0.03200
C538        C  0.31331814  0.17606361  0.12173713     0.02300
C539        C  0.32827084  0.14996140  0.18030292     0.09200
N540        N  0.27063735  0.11887043  0.17657794     0.65500
H541        H  0.25074968  0.13155606  0.13961805     0.18400
N542        N  0.32809077  0.19554817  0.10355306     0.76000
H543        H  0.34812389  0.18414143  0.14179217     0.09900
C544        C  0.34961857  0.14566711  0.17582557     0.03600
C545        C  0.36336447  0.14289764  0.19554489    -0.05100
C546        C  0.35651301  0.14420426  0.22016816    -0.23500
C547        C  0.33518801  0.14860430  0.22468902     0.12900
C548        C  0.32151972  0.15160590  0.20486810    -0.12600
N549        N  0.35733642  0.14346528  0.15134760     0.64600
H550        H  0.37954559  0.13944256  0.19136747     0.12400
N551        N  0.32764427  0.15099592  0.24915648     0.61200
H552        H  0.30576825  0.15578175  0.20877372     0.08600
O553        O  0.33917839  0.19007096  0.08640625    -0.40300
O554        O  0.33501956  0.21934422  0.10778147    -0.39400
O555        O  0.25728326  0.12300292  0.19243314    -0.39400
O556        O  0.26560410  0.09555834  0.17261546    -0.37100
O557        O  0.33664255  0.17359956  0.25853800    -0.38000
O558        O  0.30789414  0.13165542  0.25888260    -0.34200
O559        O  0.37817153  0.16221619  0.14240813    -0.35600
O560        O  0.34729458  0.12105466  0.14136708    -0.39900
C561        C  0.32682800  0.96229817  0.23372019    -0.13600
C562        C  0.33737154  0.97282602  0.25682045     0.16800
C563        C  0.33239971  0.95532965  0.27668438     0.03100
C564        C  0.31618613  0.92807323  0.27333989    -0.12100
C565        C  0.30465954  0.91770782  0.25046150    -0.03200
C566        C  0.31092874  0.93511909  0.23029216     0.02300
C567        C  0.35024918  0.00189491  0.26035578     0.09200
N568        N  0.34349923  0.96490984  0.30040812     0.65500
H569        H  0.31197740  0.91502325  0.28895518     0.18400
N570        N  0.30159723  0.92555646  0.20608214     0.76000
H571        H  0.33009480  0.97533193  0.21830145     0.09900
C572        C  0.37109825  0.01995463  0.24519112     0.03600
C573        C  0.38050836  0.04709627  0.24750617    -0.05100
C574        C  0.36952234  0.05698366  0.26464819    -0.23500
C575        C  0.34852036  0.03873164  0.27974685     0.12900
C576        C  0.33921636  0.01167925  0.27739412    -0.12600
N577        N  0.38317924  0.01114497  0.22751921     0.64600
H578        H  0.39668331  0.06051026  0.23577636     0.12400
N579        N  0.33594575  0.04707439  0.29732890     0.61200
H580        H  0.32252052  0.99809612  0.28852492     0.08600
O581        O  0.28244585  0.92723663  0.19759818    -0.40300
O582        O  0.31595022  0.92128113  0.19156352    -0.39400
O583        O  0.32885467  0.96464596  0.31764729    -0.39400
O584        O  0.36555948  0.96721099  0.30552045    -0.37100
O585        O  0.31487657  0.04666499  0.29156765    -0.38000
O586        O  0.34228347  0.04883760  0.31969876    -0.34200
O587        O  0.37834018  0.01153328  0.20497055    -0.35600
O588        O  0.40311735  0.00957261  0.23367824    -0.39900
C589        C  0.11682886  0.81817484  0.34540264    -0.13600
C590        C  0.13754873  0.81298828  0.34907231     0.16800
C591        C  0.13882421  0.80207072  0.37191778     0.03100
C592        C  0.12004699  0.79710294  0.39036004    -0.12100
C593        C  0.09935717  0.80236566  0.38676330    -0.03200
C594        C  0.09767895  0.81266651  0.36360133     0.02300
C595        C  0.15831307  0.82039266  0.32956102     0.09200
N596        N  0.15885281  0.79548587  0.37669139     0.65500
H597        H  0.12181995  0.78905065  0.40774670     0.18400
N598        N  0.07698586  0.81813211  0.35817254     0.76000
H599        H  0.11574372  0.82725497  0.32840211     0.09900
C600        C  0.15202472  0.81380375  0.30443655     0.03600
C601        C  0.17217359  0.82114059  0.28690745    -0.05100
C602        C  0.19877140  0.83455075  0.29373548    -0.23500
C603        C  0.20514998  0.84198079  0.31857622     0.12900
C604        C  0.18504781  0.83526742  0.33601878    -0.12600
N605        N  0.12534355  0.79854615  0.29645764     0.64600
H606        H  0.16687442  0.81503270  0.26793827     0.12400
N607        N  0.23194490  0.85694272  0.32631179     0.61200
H608        H  0.19048974  0.84195852  0.35480912     0.08600
O609        O  0.05755320  0.80174972  0.34568767    -0.40300
O610        O  0.08108717  0.84134764  0.36051696    -0.39400
O611        O  0.17680248  0.80910128  0.39188499    -0.39400
O612        O  0.15493004  0.77294755  0.37077461    -0.37100
O613        O  0.24198996  0.84579016  0.33845057    -0.38000
O614        O  0.24327827  0.88178025  0.32594257    -0.34200
O615        O  0.11550448  0.80935972  0.28351794    -0.35600
O616        O  0.11433826  0.77373477  0.29689528    -0.39900
C617        C  0.93173548  0.61562422  0.43252703    -0.13600
C618        C  0.95362995  0.63285209  0.41820745     0.16800
C619        C  0.96488375  0.62223838  0.40216626     0.03100
C620        C  0.95440296  0.59496909  0.40086098    -0.12100
C621        C  0.93280602  0.57746870  0.41551068    -0.03200
C622        C  0.92119191  0.58816867  0.43127674     0.02300
C623        C  0.96719965  0.66156456  0.42328462     0.09200
N624        N  0.98815459  0.63889482  0.38834163     0.65500
H625        H  0.96383187  0.58758570  0.38849158     0.18400
N626        N  0.89911554  0.57167813  0.44649265     0.76000
H627        H  0.92322526  0.62362729  0.44530203     0.09900
C628        C  0.96967474  0.68046036  0.40575849     0.03600
C629        C  0.98557285  0.70745298  0.41088565    -0.05100
C630        C  0.99903640  0.71604916  0.43332970    -0.23500
C631        C  0.99516117  0.69692358  0.45131838     0.12900
C632        C  0.97950332  0.67012664  0.44606396    -0.12600
N633        N  0.95564572  0.67266010  0.38305301     0.64600
H634        H  0.98770527  0.72173266  0.39705244     0.12400
N635        N  0.00597075  0.70414001  0.47545310     0.61200
H636        H  0.97737666  0.65577094  0.45983380     0.08600
O637        O  0.87634117  0.56631127  0.43986591    -0.40300
O638        O  0.90289193  0.56758262  0.46848966    -0.39400
O639        O  0.01036072  0.64689291  0.39814709    -0.39400
O640        O  0.98671230  0.63978036  0.36524385    -0.37100
O641        O  0.99041098  0.69952661  0.49328493    -0.38000
O642        O  0.02841290  0.70690982  0.47958559    -0.34200
O643        O  0.93228818  0.66838408  0.38246724    -0.35600
O644        O  0.96832468  0.67698337  0.36315814    -0.39900
C645        C  0.01282208  0.47236758  0.50917876    -0.13600
C646        C  0.99450951  0.48027029  0.51561257     0.16800
C647        C  0.98954285  0.48185065  0.54088598     0.03100
C648        C  0.00291461  0.47586993  0.55886449    -0.12100
C649        C  0.02160423  0.46844891  0.55245778    -0.03200
C650        C  0.02639695  0.46661927  0.52717341     0.02300
C651        C  0.97921760  0.48451018  0.49586428     0.09200
N652        N  0.97148587  0.49019285  0.54871623     0.65500
H653        H  0.99907351  0.47775657  0.57808848     0.18400
N654        N  0.04403902  0.45777220  0.51934358     0.76000
H655        H  0.01612359  0.46987072  0.48996178     0.09900
C656        C  0.99149188  0.50115085  0.47537740     0.03600
C657        C  0.97613307  0.50341259  0.45676417    -0.05100
C658        C  0.94850278  0.48955483  0.45801908    -0.23500
C659        C  0.93626832  0.47268870  0.47836422     0.12900
C660        C  0.95160504  0.47024247  0.49677768    -0.12600
N661        N  0.01951749  0.51634795  0.47335965     0.64600
H662        H  0.98599200  0.51650657  0.44138305     0.12400
N663        N  0.90827023  0.45682242  0.48008680     0.61200
H664        H  0.94171107  0.45639190  0.51163394     0.08600
O665        O  0.06664116  0.47434273  0.51151358    -0.40300
O666        O  0.03503960  0.43362807  0.51480164    -0.39400
O667        O  0.94932336  0.47338139  0.55725015    -0.39400
O668        O  0.97996565  0.51432654  0.55284044    -0.37100
O669        O  0.89706213  0.43374933  0.47143590    -0.38000
O670        O  0.89575768  0.46351860  0.49462257    -0.34200
O671        O  0.03126254  0.50946279  0.45808160    -0.35600
O672        O  0.03129312  0.53950452  0.48179878    -0.39900
C673        C  0.97531045  0.29064930  0.57580930    -0.13600
C674        C  0.00018300  0.29914704  0.58591898     0.16800
C675        C  0.00667938  0.28026680  0.59419618     0.03100
C676        C  0.98832405  0.25328713  0.59191651    -0.12100
C677        C  0.96329656  0.24467273  0.58167415    -0.03200
C678        C  0.95683857  0.26385044  0.57383128     0.02300
C679        C  0.01710512  0.32772917  0.59050690     0.09200
N680        N  0.03191252  0.28816319  0.60457189     0.65500
H681        H  0.99387484  0.23902807  0.59788149     0.18400
N682        N  0.93115118  0.25660609  0.56501647     0.76000
H683        H  0.96979791  0.30506117  0.57021086     0.09900
C684        C  0.02884513  0.34583111  0.57103580     0.03600
C685        C  0.03956157  0.37289699  0.57533938    -0.05100
C686        C  0.03809260  0.38232300  0.59870575    -0.23500
C687        C  0.02721814  0.36417199  0.61840879     0.12900
C688        C  0.01714872  0.33721663  0.61416162    -0.12600
N689        N  0.02915096  0.33694379  0.54662156     0.64600
H690        H  0.04797915  0.38650451  0.56003677     0.12400
N691        N  0.02607652  0.37263204  0.64283182     0.61200
H692        H  0.00791282  0.32342498  0.62922226     0.08600
O693        O  0.92774689  0.25819083  0.54231594    -0.40300
O694        O  0.91377814  0.25457827  0.58009384    -0.39400
O695        O  0.03409720  0.28730467  0.62758491    -0.39400
O696        O  0.05025568  0.29019917  0.59080868    -0.37100
O697        O  0.00530264  0.37214814  0.65001554    -0.38000
O698        O  0.04208622  0.37323948  0.65864018    -0.34200
O699        O  0.01192656  0.33485351  0.53148684    -0.35600
O700        O  0.04961267  0.33721359  0.53878763    -0.39900
C701        C  0.81790457  0.14751951  0.63743166    -0.13600
C702        C  0.82769168  0.15404962  0.66152999     0.16800
C703        C  0.85480140  0.16387029  0.66551051     0.03100
C704        C  0.87127685  0.16641869  0.64574046    -0.12100
C705        C  0.86153971  0.15987461  0.62164533    -0.03200
C706        C  0.83455792  0.15065606  0.61751773     0.02300
C707        C  0.80927599  0.14956021  0.68234098     0.09200
N708        N  0.86607441  0.17198724  0.68941735     0.65500
H709        H  0.89203217  0.17386675  0.64929652     0.18400
N710        N  0.82346915  0.14308604  0.59351383     0.76000
H711        H  0.79701324  0.13927619  0.63407642     0.09900
C712        C  0.79205257  0.15988897  0.68201459     0.03600
C713        C  0.77470445  0.15492559  0.70162004    -0.05100
C714        C  0.77392760  0.13982269  0.72206180    -0.23500
C715        C  0.79093251  0.12915815  0.72228733     0.12900
C716        C  0.80823457  0.13397414  0.70246252    -0.12600
N717        N  0.79240883  0.17616272  0.66226331     0.64600
H718        H  0.76208078  0.16360037  0.70095138     0.12400
N719        N  0.79033088  0.11271200  0.74195677     0.61200
H720        H  0.82066527  0.12507495  0.70262653     0.08600
O721        O  0.81318372  0.11927407  0.58703222    -0.40300
O722        O  0.81896734  0.15866252  0.58116505    -0.39400
O723        O  0.87303160  0.15788058  0.70117315    -0.39400
O724        O  0.87442519  0.19548967  0.69610890    -0.37100
O725        O  0.77612519  0.08803364  0.74003177    -0.38000
O726        O  0.80803680  0.12215633  0.75816530    -0.34200
O727        O  0.77382377  0.16687680  0.64691464    -0.35600
O728        O  0.80716898  0.20080429  0.66371842    -0.39900
C729        C  0.63572297  0.01620097  0.74879003    -0.13600
C730        C  0.64153739  0.99956944  0.76292193     0.16800
C731        C  0.66276594  0.01126449  0.77947039     0.03100
C732        C  0.67745167  0.03873062  0.78170186    -0.12100
C733        C  0.67222354  0.05567956  0.76735501    -0.03200
C734        C  0.65072502  0.04394904  0.75084183     0.02300
C735        C  0.62735750  0.97045302  0.75828972     0.09200
N736        N  0.67113794  0.99571876  0.79282910     0.65500
H737        H  0.69383357  0.04677500  0.79442614     0.18400
N738        N  0.64412298  0.05969277  0.73563580     0.76000
H739        H  0.61969522  0.00756263  0.73568224     0.09900
C740        C  0.61141133  0.95164342  0.77619645     0.03600
C741        C  0.60004529  0.92446245  0.77125166    -0.05100
C742        C  0.60420220  0.91533709  0.74866242    -0.23500
C743        C  0.61961635  0.93432668  0.73054757     0.12900
C744        C  0.63091727  0.96136390  0.73553892    -0.12600
N745        N  0.60580473  0.95970808  0.79918462     0.64600
H746        H  0.58808103  0.91041646  0.78532163     0.12400
N747        N  0.62347729  0.92661415  0.70662346     0.61200
H748        H  0.64290362  0.97547270  0.72150362     0.08600
O749        O  0.62544347  0.06340629  0.74196042    -0.40300
O750        O  0.65254888  0.06451337  0.71377969    -0.39400
O751        O  0.68633231  0.98914507  0.78242721    -0.39400
O752        O  0.66964337  0.99512320  0.81600312    -0.37100
O753        O  0.60827091  0.92480742  0.68940619    -0.38000
O754        O  0.64514660  0.92791746  0.70148222    -0.34200
O755        O  0.58641791  0.96350588  0.80063481    -0.35600
O756        O  0.61513841  0.95598864  0.81867146    -0.39900
C757        C  0.67486916  0.80027186  0.84038311    -0.13600
C758        C  0.65817248  0.81026028  0.84635419     0.16800
C759        C  0.65371040  0.81329526  0.87140237     0.03100
C760        C  0.66620043  0.80681965  0.88980514    -0.12100
C761        C  0.68344701  0.79746933  0.88388078    -0.03200
C762        C  0.68752510  0.79393374  0.85876540     0.02300
C763        C  0.64397815  0.81544292  0.82641933     0.09200
N764        N  0.63727283  0.82385589  0.87846959     0.65500
H765        H  0.66307907  0.81007455  0.90888491     0.18400
N766        N  0.70369424  0.78307717  0.85157266     0.76000
H767        H  0.67769269  0.79681634  0.82128251     0.09900
C768        C  0.65729881  0.83259529  0.80657619     0.03600
C769        C  0.64294270  0.83657749  0.78811418    -0.05100
C770        C  0.61532328  0.82366687  0.78888879    -0.23500
C771        C  0.60203712  0.80571856  0.80829901     0.12900
C772        C  0.61640188  0.80191180  0.82674932    -0.12600
N773        N  0.68539377  0.84662792  0.80519368     0.64600
H774        H  0.65354160  0.85021915  0.77329037     0.12400
N775        N  0.57398108  0.78993354  0.80882078     0.61200
H776        H  0.60583918  0.78771076  0.84120455     0.08600
O777        O  0.72605160  0.79790784  0.84217869    -0.40300
O778        O  0.69345577  0.75842363  0.84942091    -0.39400
O779        O  0.61492831  0.80880414  0.88777618    -0.39400
O780        O  0.64725566  0.84847203  0.88067073    -0.37100
O781        O  0.56317165  0.76753198  0.79875993    -0.38000
O782        O  0.56096989  0.79536157  0.82396902    -0.34200
O783        O  0.69684580  0.83913833  0.79017721    -0.35600
O784        O  0.69798820  0.86939753  0.81439606    -0.39900
C785        C  0.65061344  0.61726536  0.89689653    -0.13600
C786        C  0.66265483  0.62756082  0.91957145     0.16800
C787        C  0.65899856  0.60991883  0.93891276     0.03100
C788        C  0.64295108  0.58266518  0.93549179    -0.12100
C789        C  0.63002564  0.57239715  0.91310056    -0.03200
C790        C  0.63452837  0.59006924  0.89344649     0.02300
C791        C  0.67578122  0.65654900  0.92362124     0.09200
N792        N  0.67125486  0.61939788  0.96224751     0.65500
H793        H  0.64001488  0.56951569  0.95072849     0.18400
N794        N  0.62313238  0.58081983  0.86975197     0.76000
H795        H  0.65287537  0.63049985  0.88194411     0.09900
C796        C  0.69667847  0.67484973  0.90866404     0.03600
C797        C  0.70688038  0.70201093  0.91216396    -0.05100
C798        C  0.69644563  0.71159815  0.93017316    -0.23500
C799        C  0.67522047  0.69305934  0.94489731     0.12900
C800        C  0.66529271  0.66604266  0.94148098    -0.12600
N801        N  0.70792362  0.66624250  0.88996629     0.64600
H802        H  0.72303042  0.71565789  0.90053559     0.12400
N803        N  0.66304456  0.70109846  0.96318766     0.61200
H804        H  0.64858190  0.65226924  0.95249638     0.08600
O805        O  0.63658704  0.57779810  0.85319833    -0.40300
O806        O  0.60287994  0.58191635  0.86378676    -0.39400
O807        O  0.65754606  0.61926903  0.98028918    -0.39400
O808        O  0.69366758  0.62197738  0.96607649    -0.37100
O809        O  0.64265202  0.70217949  0.95776559    -0.38000
O810        O  0.66896738  0.70131083  0.98551037    -0.34200
O811        O  0.70257349  0.66749255  0.86771689    -0.35600
O812        O  0.72764049  0.66383746  0.89506076    -0.39900
C813        C  0.48467162  0.48391717  0.04122703    -0.13600
C814        C  0.47376334  0.47571526  0.01774419     0.16800
C815        C  0.44624413  0.46334171  0.01496157     0.03100
C816        C  0.43029401  0.46023050  0.03541319    -0.12100
C817        C  0.44116033  0.46867889  0.05895554    -0.03200
C818        C  0.46867783  0.48044088  0.06177902     0.02300
C819        C  0.49142861  0.47874143  0.99686526     0.09200
N820        N  0.43411205  0.45279396  0.99178043     0.65500
H821        H  0.40914937  0.45087941  0.03289122     0.18400
N822        N  0.48086376  0.49038848  0.08502052     0.76000
H823        H  0.50583550  0.49325274  0.04357817     0.09900
C824        C  0.49800780  0.49799248  0.97841487     0.03600
C825        C  0.51580895  0.50077129  0.95968647    -0.05100
C826        C  0.52777178  0.48508256  0.95931395    -0.23500
C827        C  0.52095124  0.46569412  0.97778664     0.12900
C828        C  0.50292003  0.46271941  0.99622992    -0.12600
N829        N  0.48801605  0.51584703  0.97920289     0.64600
H830        H  0.52095620  0.51588271  0.94580985     0.12400
N831        N  0.53148777  0.44827110  0.97771762     0.61200
H832        H  0.49791069  0.44780338  0.01029325     0.08600
O833        O  0.49058315  0.51461871  0.08957607    -0.40300
O834        O  0.48731765  0.47672027  0.09810473    -0.39400
O835        O  0.42696579  0.42910023  0.98677196    -0.39400
O836        O  0.42487400  0.46459265  0.97947239    -0.37100
O837        O  0.54994125  0.45253288  0.99226154    -0.38000
O838        O  0.51851857  0.42589762  0.96779616    -0.34200
O839        O  0.50107985  0.53755987  0.99023073    -0.35600
O840        O  0.47062308  0.51315252  0.96399574    -0.39900
C841        C  0.16938609  0.00642108  0.99897048    -0.13600
C842        C  0.18705546  0.01338430  0.01851376     0.16800
C843        C  0.19773283  0.99714702  0.02436137     0.03100
C844        C  0.19176178  0.97509541  0.00970187    -0.12100
C845        C  0.17543592  0.96906929  0.98899876    -0.03200
C846        C  0.16343333  0.98451671  0.98426753     0.02300
C847        C  0.19637318  0.03931626  0.03035212     0.09200
N848        N  0.21521401  0.00322574  0.04468462     0.65500
H849        H  0.20099088  0.96342816  0.01387224     0.18400
N850        N  0.14537907  0.97849620  0.96443270     0.76000
H851        H  0.16093184  0.01872724  0.99448099     0.09900
C852        C  0.21941730  0.06142197  0.02175650     0.03600
C853        C  0.22687914  0.08634186  0.03120732    -0.05100
C854        C  0.21141570  0.09023936  0.04884641    -0.23500
C855        C  0.18802088  0.06794518  0.05729210     0.12900
C856        C  0.18083167  0.04273182  0.04808955    -0.12600
N857        N  0.23452433  0.05912616  0.00215182     0.64600
H858        H  0.24471830  0.10290278  0.02396587     0.12400
N859        N  0.17073001  0.07055805  0.07422136     0.61200
H860        H  0.16260473  0.02583795  0.05424933     0.08600
O861        O  0.15319540  0.99161228  0.94475082    -0.40300
O862        O  0.12099311  0.96463113  0.96854316    -0.39400
O863        O  0.20631425  0.99157014  0.06492614    -0.39400
O864        O  0.23975675  0.01547552  0.04099000    -0.37100
O865        O  0.15174061  0.07274527  0.06607701    -0.38000
O866        O  0.17085379  0.06482167  0.09656250    -0.34200
O867        O  0.22954465  0.06228208  0.98025996    -0.35600
O868        O  0.25597422  0.05987925  0.00688368    -0.39900
C869        C  0.58115939  0.09556758  0.85424070    -0.13600
C870        C  0.60139305  0.11168952  0.87039141     0.16800
C871        C  0.59495446  0.11901027  0.89295190     0.03100
C872        C  0.56843671  0.11003916  0.89896957    -0.12100
C873        C  0.54808539  0.09404215  0.88264336    -0.03200
C874        C  0.55480770  0.08697908  0.85992294     0.02300
C875        C  0.62880178  0.12285967  0.86133391     0.09200
N876        N  0.61507219  0.13616430  0.90953717     0.65500
H877        H  0.56378146  0.11572854  0.91646824     0.18400
N878        N  0.53539721  0.07275007  0.84158193     0.76000
H879        H  0.58599615  0.09047564  0.83650557     0.09900
C880        C  0.64360805  0.11023666  0.86553337     0.03600
C881        C  0.66586563  0.11661120  0.85095790    -0.05100
C882        C  0.67338539  0.13510189  0.83180489    -0.23500
C883        C  0.65968483  0.14924668  0.82906118     0.12900
C884        C  0.63772217  0.14305432  0.84384718    -0.12600
N885        N  0.63513516  0.08948995  0.88315134     0.64600
H886        H  0.67608796  0.10558427  0.85347438     0.12400
N887        N  0.66700423  0.16916029  0.81067025     0.61200
H888        H  0.62643244  0.15287358  0.84046785     0.08600
O889        O  0.52830767  0.04887525  0.83758985    -0.40300
O890        O  0.52992914  0.08531362  0.82605684    -0.39400
O891        O  0.62235541  0.16041517  0.90951887    -0.39400
O892        O  0.62090106  0.12647964  0.92753739    -0.37100
O893        O  0.65447512  0.16343902  0.79067166    -0.38000
O894        O  0.68079128  0.19305688  0.81673410    -0.34200
O895        O  0.62260341  0.06586407  0.87597589    -0.35600
O896        O  0.64528847  0.09457393  0.90429557    -0.39900
C897        C  0.28997854  0.99600492  0.90693926    -0.13600
C898        C  0.30662357  0.99335882  0.92381639     0.16800
C899        C  0.29528434  0.97483960  0.94301473     0.03100
C900        C  0.26789473  0.95936753  0.94482893    -0.12100
C901        C  0.25111858  0.96147425  0.92758648    -0.03200
C902        C  0.26255116  0.98004612  0.90837510     0.02300
C903        C  0.33566030  0.00931745  0.92055676     0.09200
N904        N  0.31126559  0.97072199  0.96027440     0.65500
H905        H  0.25979525  0.94531350  0.95981891     0.18400
N906        N  0.24680264  0.98240105  0.88966229     0.76000
H907        H  0.29835695  0.01042915  0.89227912     0.09900
C908        C  0.34756414  0.00906837  0.89804390     0.03600
C909        C  0.37486433  0.02309267  0.89569493    -0.05100
C910        C  0.39114213  0.03742146  0.91541452    -0.23500
C911        C  0.37934357  0.03882856  0.93764952     0.12900
C912        C  0.35174906  0.02480176  0.94000936    -0.12600
N913        N  0.33235458  0.99347533  0.87771556     0.64600
H914        H  0.38344347  0.02204493  0.87828299     0.12400
N915        N  0.39492059  0.05324823  0.95827294     0.61200
H916        H  0.34285514  0.02575397  0.95724657     0.08600
O917        O  0.24377134  0.97054803  0.86947655    -0.40300
O918        O  0.24076496  0.00027804  0.89126708    -0.39400
O919        O  0.31312122  0.97901332  0.98203433    -0.39400
O920        O  0.31848543  0.95414275  0.95544538    -0.37100
O921        O  0.39837998  0.07595517  0.96263457    -0.38000
O922        O  0.39985701  0.04126181  0.97484514    -0.34200
O923        O  0.32907974  0.00471909  0.85937275    -0.35600
O924        O  0.32808068  0.97019143  0.87551595    -0.39900
C925        C  0.10630797  0.63258020  0.64744969    -0.13600
C926        C  0.12037776  0.61942770  0.65219475     0.16800
C927        C  0.14212153  0.63120825  0.66819889     0.03100
C928        C  0.14756728  0.65414943  0.68101237    -0.12100
C929        C  0.13186575  0.66595563  0.67812844    -0.03200
C930        C  0.11190754  0.65572031  0.66010067     0.02300
C931        C  0.11070280  0.59251789  0.64207466     0.09200
N932        N  0.15768999  0.61912963  0.67305378     0.65500
H933        H  0.16336191  0.66195514  0.69439956     0.18400
N934        N  0.09542334  0.66688346  0.65604656     0.76000
H935        H  0.09003331  0.62415894  0.63458322     0.09900
C936        C  0.08503554  0.57198859  0.64748309     0.03600
C937        C  0.07659733  0.54654396  0.63881055    -0.05100
C938        C  0.09318397  0.54062438  0.62469610    -0.23500
C939        C  0.11863275  0.56142755  0.61851989     0.12900
C940        C  0.12713548  0.58703151  0.62731814    -0.12600
N941        N  0.06761278  0.57635111  0.66275482     0.64600
H942        H  0.05690168  0.53115592  0.64371262     0.12400
N943        N  0.13629246  0.55696942  0.60376229     0.61200
H944        H  0.14675769  0.60272971  0.62264511     0.08600
O945        O  0.07177891  0.65429342  0.66315069    -0.40300
O946        O  0.10191970  0.68445316  0.63980658    -0.39400
O947        O  0.18013479  0.62845704  0.66319833    -0.39400
O948        O  0.15174577  0.60343945  0.69094172    -0.37100
O949        O  0.13750810  0.56120853  0.58091376    -0.38000
O950        O  0.15440850  0.55476063  0.61400584    -0.34200
O951        O  0.04867136  0.57754780  0.65307301    -0.35600
O952        O  0.06753750  0.57298372  0.68567961    -0.39900
C953        C  0.15475378  0.78179293  0.83324969    -0.13600
C954        C  0.14857335  0.80180529  0.82945781     0.16800
C955        C  0.13892820  0.80362081  0.80612142     0.03100
C956        C  0.13546809  0.78553320  0.78751032    -0.12100
C957        C  0.14144652  0.76534780  0.79135001    -0.03200
C958        C  0.15120818  0.76362705  0.81473552     0.02300
C959        C  0.15401520  0.82148354  0.84943917     0.09200
N960        N  0.13238185  0.82361934  0.80092414     0.65500
H961        H  0.12806445  0.78745003  0.76982459     0.18400
N962        N  0.15853956  0.74418869  0.81993249     0.76000
H963        H  0.16324021  0.78065599  0.85058306     0.09900
C964        C  0.14545073  0.81382897  0.87401252     0.03600
C965        C  0.15158091  0.83303982  0.89225033    -0.05100
C966        C  0.16568387  0.85996176  0.88652251    -0.23500
C967        C  0.17487896  0.86761942  0.86222046     0.12900
C968        C  0.16934635  0.84847649  0.84414628    -0.12600
N969        N  0.12949819  0.78670698  0.88059616     0.64600
H970        H  0.14417276  0.82681891  0.91080172     0.12400
N971        N  0.19055088  0.89479791  0.85574704     0.61200
H972        H  0.17742505  0.85486065  0.82583763     0.08600
O973        O  0.14303688  0.72397738  0.83214138    -0.40300
O974        O  0.18228432  0.75001792  0.81744423    -0.39400
O975        O  0.14734972  0.84258687  0.78710989    -0.39400
O976        O  0.10910506  0.81882889  0.80456361    -0.37100
O977        O  0.18010050  0.90611347  0.84450553    -0.38000
O978        O  0.21532264  0.90563258  0.85657976    -0.34200
O979        O  0.13938358  0.77570172  0.89319570    -0.35600
O980        O  0.10477853  0.77603472  0.87911282    -0.39900
C981        C  0.71065326  0.50831787  0.79627245    -0.13600
C982        C  0.70620044  0.52535206  0.81127845     0.16800
C983        C  0.72771655  0.55029215  0.81709909     0.03100
C984        C  0.75279072  0.55769343  0.80779478    -0.12100
C985        C  0.75761866  0.54046279  0.79339593    -0.03200
C986        C  0.73602223  0.51548159  0.78750866     0.02300
C987        C  0.67995085  0.51551757  0.82320191     0.09200
N988        N  0.72510787  0.56741929  0.83428484     0.65500
H989        H  0.76890287  0.57691320  0.81287346     0.18400
N990        N  0.73962429  0.49645428  0.77415500     0.76000
H991        H  0.69442113  0.48883491  0.79210588     0.09900
C992        C  0.66486269  0.52820306  0.82057364     0.03600
C993        C  0.64187979  0.51981259  0.83465330    -0.05100
C994        C  0.63339886  0.49881505  0.85129045    -0.23500
C995        C  0.64740848  0.48495655  0.85252852     0.12900
C996        C  0.67049392  0.49348035  0.83870045    -0.12600
N997        N  0.67222076  0.54924929  0.80344168     0.64600
H998        H  0.63114383  0.53044748  0.83320565     0.12400
N999        N  0.63827294  0.46198262  0.86752832     0.61200
H1000       H  0.68150269  0.48315642  0.84056338     0.08600
O1001       O  0.73309367  0.49230723  0.75180651    -0.40300
O1002       O  0.74313038  0.47983426  0.78585162    -0.39400
O1003       O  0.72433861  0.56258701  0.85698297    -0.39400
O1004       O  0.73066473  0.59024767  0.82751048    -0.37100
O1005       O  0.62227784  0.43974937  0.85862524    -0.38000
O1006       O  0.65024541  0.46317744  0.88715845    -0.34200
O1007       O  0.66589956  0.54370366  0.78116429    -0.35600
O1008       O  0.67774358  0.57172865  0.81132612    -0.39900
C1009       C  0.95504449  0.60144469  0.74258703    -0.13600
C1010       C  0.97164610  0.62226868  0.75822149     0.16800
C1011       C  0.96024699  0.63161678  0.77548235     0.03100
C1012       C  0.93285904  0.62010848  0.77692102    -0.12100
C1013       C  0.91596349  0.59939582  0.76118066    -0.03200
C1014       C  0.92746777  0.58996236  0.74389432     0.02300
C1015       C  0.00054001  0.63655642  0.75371940     0.09200
N1016       N  0.97615474  0.65397588  0.79059045     0.65500
H1017       H  0.92488308  0.62804186  0.79033174     0.18400
N1018       N  0.91167190  0.56930236  0.72712365     0.76000
H1019       H  0.96362564  0.59449352  0.72881165     0.09900
C1020       C  0.01894297  0.63686504  0.77062671     0.03600
C1021       C  0.04608656  0.65222916  0.76576278    -0.05100
C1022       C  0.05544640  0.66767488  0.74435303    -0.23500
C1023       C  0.03671358  0.66676376  0.72723553     0.12900
C1024       C  0.00975476  0.65121347  0.73206803    -0.12600
N1025       N  0.01048022  0.62131416  0.79251510     0.64600
H1026       H  0.05991461  0.65235938  0.77906289     0.12400
N1027       N  0.04440010  0.68128082  0.70469549     0.61200
H1028       H  0.99577399  0.65109888  0.71893557     0.08600
O1029       O  0.90667977  0.54611011  0.73164666    -0.40300
O1030       O  0.90783603  0.57506271  0.70575448    -0.39400
O1031       O  0.98314990  0.67672398  0.78245210    -0.39400
O1032       O  0.97692371  0.65078564  0.81345807    -0.37100
O1033       O  0.04883693  0.70471932  0.70463262    -0.38000
O1034       O  0.03869152  0.66873996  0.68466971    -0.34200
O1035       O  0.00620520  0.59794406  0.79178995    -0.35600
O1036       O  0.01420336  0.63266262  0.81306923    -0.39900
C1037       C  0.92482519  0.79239161  0.55359747    -0.13600
C1038       C  0.93014664  0.77409342  0.54180156     0.16800
C1039       C  0.90981690  0.74765731  0.54003008     0.03100
C1040       C  0.88461456  0.74036261  0.54863360    -0.12100
C1041       C  0.87867895  0.75882720  0.55903292    -0.03200
C1042       C  0.89938243  0.78499551  0.56232758     0.02300
C1043       C  0.95624484  0.78277995  0.53003692     0.09200
N1044       N  0.91390088  0.72820351  0.52803287     0.65500
H1045       H  0.86926198  0.72000206  0.54634664     0.18400
N1046       N  0.89484031  0.80451249  0.57349965     0.76000
H1047       H  0.94040187  0.81268709  0.55558949     0.09900
C1048       C  0.96588898  0.80199206  0.51132816     0.03600
C1049       C  0.98810492  0.80659424  0.49772098    -0.05100
C1050       C  0.00120846  0.79230468  0.50207089    -0.23500
C1051       C  0.99304898  0.77488212  0.52237383     0.12900
C1052       C  0.97063907  0.77020450  0.53599797    -0.12600
N1053       N  0.95215020  0.81549248  0.50450187     0.64600
H1054       H  0.99425670  0.82055436  0.48262967     0.12400
N1055       N  0.00618415  0.76067077  0.52868040     0.61200
H1056       H  0.96392563  0.75597820  0.55088529     0.08600
O1057       O  0.89203186  0.82048867  0.56003130    -0.40300
O1058       O  0.90001265  0.80975772  0.59600769    -0.39400
O1059       O  0.91563560  0.71114977  0.54082771    -0.39400
O1060       O  0.90936213  0.72423130  0.50530114    -0.37100
O1061       O  0.02601045  0.77144880  0.54256257    -0.38000
O1062       O  0.99396796  0.73592815  0.52658402    -0.34200
O1063       O  0.96139262  0.83930412  0.51059489    -0.35600
O1064       O  0.93459193  0.80573096  0.48817649    -0.39900
C1065       C  0.80906219  0.64659591  0.64098666    -0.13600
C1066       C  0.80836493  0.65409024  0.66544085     0.16800
C1067       C  0.80420555  0.67546707  0.66992602     0.03100
C1068       C  0.80130947  0.68910419  0.65023250    -0.12100
C1069       C  0.80242637  0.68203911  0.62568468    -0.03200
C1070       C  0.80602621  0.66020362  0.62115692     0.02300
C1071       C  0.81334909  0.64031578  0.68591809     0.09200
N1072       N  0.80251889  0.68342270  0.69442059     0.65500
H1073       H  0.79818683  0.70551033  0.65434976     0.18400
N1074       N  0.80776962  0.65220903  0.59669518     0.76000
H1075       H  0.81276937  0.63050209  0.63720203     0.09900
C1076       C  0.79826427  0.61275843  0.68868388     0.03600
C1077       C  0.80456942  0.60020114  0.70707760    -0.05100
C1078       C  0.82564771  0.61448009  0.72323000    -0.23500
C1079       C  0.84052829  0.64213484  0.72083046     0.12900
C1080       C  0.83437076  0.65474068  0.70215861    -0.12600
N1081       N  0.77614290  0.59723665  0.67325387     0.64600
H1082       H  0.79260189  0.57896071  0.70887712     0.12400
N1083       N  0.86289370  0.65748733  0.73603035     0.61200
H1084       H  0.84662883  0.67587834  0.69985840     0.08600
O1085       O  0.78825036  0.63218026  0.58762640    -0.40300
O1086       O  0.83008348  0.66119375  0.58664385    -0.39400
O1087       O  0.82140443  0.70437739  0.70292084    -0.39400
O1088       O  0.78035760  0.67333020  0.70495050    -0.37100
O1089       O  0.88524356  0.66160825  0.72911476    -0.38000
O1090       O  0.86141587  0.67171355  0.75273698    -0.34200
O1091       O  0.77777293  0.58257076  0.65710778    -0.35600
O1092       O  0.75375184  0.59350048  0.67951196    -0.39900
C1093       C  0.61654555  0.65481807  0.56692406    -0.13600
C1094       C  0.63307156  0.65736743  0.58678096     0.16800
C1095       C  0.62123212  0.64500005  0.60926610     0.03100
C1096       C  0.59382853  0.63015939  0.61127539    -0.12100
C1097       C  0.57731233  0.62676301  0.59127138    -0.03200
C1098       C  0.58893844  0.63944446  0.56886642     0.02300
C1099       C  0.66242427  0.67232262  0.58382417     0.09200
N1100       N  0.63668387  0.64629487  0.63007005     0.65500
H1101       H  0.58539309  0.62079812  0.62877839     0.18400
N1102       N  0.57326424  0.63562260  0.54754492     0.76000
H1103       H  0.62510089  0.66457882  0.54962660     0.09900
C1104       C  0.67509736  0.66693658  0.56436048     0.03600
C1105       C  0.70260930  0.67983424  0.56319978    -0.05100
C1106       C  0.71849056  0.69841325  0.58102539    -0.23500
C1107       C  0.70584401  0.70471908  0.59992671     0.12900
C1108       C  0.67816165  0.69178116  0.60105771    -0.12600
N1109       N  0.66044524  0.64780235  0.54591344     0.64600
H1110       H  0.71154706  0.67484919  0.54813419     0.12400
N1111       N  0.72058320  0.72386451  0.61830854     0.61200
H1112       H  0.66889214  0.69698506  0.61564779     0.08600
O1113       O  0.56983861  0.61786887  0.53233510    -0.40300
O1114       O  0.56817879  0.65335716  0.54120960    -0.39400
O1115       O  0.63805033  0.66040035  0.64822791    -0.39400
O1116       O  0.64301055  0.62874154  0.63283288    -0.37100
O1117       O  0.72476171  0.74709059  0.61587253    -0.38000
O1118       O  0.72361380  0.71625642  0.63912649    -0.34200
O1119       O  0.65867318  0.65552348  0.52470756    -0.35600
O1120       O  0.65542174  0.62434940  0.54879695    -0.39900
C1121       C  0.49834311  0.66739591  0.67422657    -0.13600
C1122       C  0.52167259  0.67898666  0.68784741     0.16800
C1123       C  0.53689231  0.66637710  0.68890594     0.03100
C1124       C  0.52957236  0.64356905  0.67494582    -0.12100
C1125       C  0.50728278  0.63311263  0.65981787    -0.03200
C1126       C  0.49098209  0.64461832  0.66033637     0.02300
C1127       C  0.53098254  0.70559134  0.69831916     0.09200
N1128       N  0.55994209  0.67662284  0.70382113     0.65500
H1129       H  0.54213869  0.63481292  0.67497810     0.18400
N1130       N  0.46693577  0.63347365  0.64678005     0.76000
H1131       H  0.48628540  0.67670786  0.67358720     0.09900
C1132       C  0.55097904  0.72797432  0.68639850     0.03600
C1133       C  0.55791731  0.75310084  0.69497118    -0.05100
C1134       C  0.54504873  0.75691302  0.71520721    -0.23500
C1135       C  0.52475645  0.73434656  0.72707870     0.12900
C1136       C  0.51796593  0.70898885  0.71855047    -0.12600
N1137       N  0.56328651  0.72562355  0.66450340     0.64600
H1138       H  0.57324257  0.76983144  0.68509189     0.12400
N1139       N  0.51067735  0.73665071  0.74756222     0.61200
H1140       H  0.50212213  0.69183810  0.72750997     0.08600
O1141       O  0.46615445  0.64389481  0.62672933    -0.40300
O1142       O  0.44565616  0.61755624  0.65737552    -0.39400
O1143       O  0.55779409  0.66866824  0.72571621    -0.39400
O1144       O  0.58232057  0.68764990  0.69365852    -0.37100
O1145       O  0.48904574  0.73593702  0.74394213    -0.38000
O1146       O  0.51637644  0.73296102  0.76899630    -0.34200
O1147       O  0.55314435  0.72514198  0.64393481    -0.35600
O1148       O  0.58694871  0.73085920  0.66528693    -0.39900
C1149       C  0.49681605  0.49739438  0.52584939    -0.13600
C1150       C  0.47872876  0.49513015  0.50775610     0.16800
C1151       C  0.46462500  0.50861236  0.51102931     0.03100
C1152       C  0.46936215  0.52462566  0.53170167    -0.12100
C1153       C  0.48754321  0.52713985  0.54986760    -0.03200
C1154       C  0.50120856  0.51306219  0.54687608     0.02300
C1155       C  0.47319349  0.47674042  0.48686277     0.09200
N1156       N  0.44421742  0.50494016  0.49441353     0.65500
H1157       H  0.45813755  0.53471450  0.53382563     0.18400
N1158       N  0.51990645  0.51477122  0.56463355     0.76000
H1159       H  0.50745270  0.48670987  0.52370544     0.09900
C1160       C  0.48101811  0.48553765  0.46247366     0.03600
C1161       C  0.47612020  0.46717409  0.44365027    -0.05100
C1162       C  0.46413259  0.44010792  0.44878951    -0.23500
C1163       C  0.45596860  0.43141715  0.47317897     0.12900
C1164       C  0.46041893  0.44969029  0.49181680    -0.12600
N1165       N  0.49569006  0.51301377  0.45682820     0.64600
H1166       H  0.48306903  0.47426097  0.42516572     0.12400
N1167       N  0.44298495  0.40405943  0.47936159     0.61200
H1168       H  0.45414937  0.44270867  0.51045804     0.08600
O1169       O  0.54406624  0.53069869  0.56112077    -0.40300
O1170       O  0.51313496  0.49649038  0.58016470    -0.39400
O1171       O  0.42108166  0.48639205  0.49828204    -0.39400
O1172       O  0.44774136  0.52357642  0.48036972    -0.37100
O1173       O  0.45583893  0.39471716  0.48968734    -0.38000
O1174       O  0.41814816  0.39109054  0.47977601    -0.34200
O1175       O  0.52050519  0.52466718  0.45777346    -0.35600
O1176       O  0.48474317  0.52348465  0.44502926    -0.39900
C1177       C  0.47072500  0.26076826  0.29942315    -0.13600
C1178       C  0.45179847  0.26832992  0.30459361     0.16800
C1179       C  0.42508852  0.25043079  0.29936062     0.03100
C1180       C  0.41774471  0.22539677  0.29040408    -0.12100
C1181       C  0.43628511  0.21722240  0.28676827    -0.03200
C1182       C  0.46317758  0.23531318  0.29074943     0.02300
C1183       C  0.45949305  0.29398356  0.31681337     0.09200
N1184       N  0.40478083  0.25651472  0.30477625     0.65500
H1185       H  0.39699057  0.21169692  0.28731339     0.18400
N1186       N  0.48270631  0.22760806  0.28795551     0.76000
H1187       H  0.49138679  0.27438795  0.30287869     0.09900
C1188       C  0.47349048  0.30106110  0.33917838     0.03600
C1189       C  0.47630387  0.32284326  0.35233103    -0.05100
C1190       C  0.46498419  0.33779200  0.34412363    -0.23500
C1191       C  0.45279252  0.33197061  0.32080970     0.12900
C1192       C  0.45054479  0.31047089  0.30730473    -0.12600
N1193       N  0.48334487  0.28533835  0.34980906     0.64600
H1194       H  0.48640627  0.32720820  0.36986329     0.12400
N1195       N  0.44110117  0.34644558  0.31119137     0.61200
H1196       H  0.44061858  0.30591515  0.28968598     0.08600
O1197       O  0.48927092  0.21910682  0.30637850    -0.40300
O1198       O  0.49722487  0.23475837  0.26906720    -0.39400
O1199       O  0.39393199  0.26170940  0.28733155    -0.39400
O1200       O  0.39348307  0.25022795  0.32547517    -0.37100
O1201       O  0.45366530  0.36435883  0.29556709    -0.38000
O1202       O  0.41658694  0.33717606  0.31346739    -0.34200
O1203       O  0.50779185  0.29361910  0.34924710    -0.35600
O1204       O  0.46903118  0.26721861  0.36466809    -0.39900
C1205       C  0.05129196  0.21099748  0.46702640    -0.13600
C1206       C  0.03591656  0.18424560  0.47287899     0.16800
C1207       C  0.04494381  0.16670392  0.46640433     0.03100
C1208       C  0.06987443  0.17649233  0.45564414    -0.12100
C1209       C  0.08600601  0.20355679  0.45140912    -0.03200
C1210       C  0.07615594  0.22078261  0.45634813     0.02300
C1211       C  0.01189942  0.17606735  0.48773891     0.09200
N1212       N  0.02919200  0.13903776  0.47074223     0.65500
H1213       H  0.07714888  0.16303821  0.45171399     0.18400
N1214       N  0.09121502  0.24827533  0.45078260     0.76000
H1215       H  0.04434038  0.22456938  0.47165347     0.09900
C1216       C  0.01160247  0.17066588  0.51297615     0.03600
C1217       C  0.99049819  0.16728166  0.52760320    -0.05100
C1218       C  0.96963722  0.16988846  0.51786863    -0.23500
C1219       C  0.96975071  0.17479903  0.49238688     0.12900
C1220       C  0.99078884  0.17776782  0.47761366    -0.12600
N1221       N  0.03368173  0.17101466  0.52454105     0.64600
H1222       H  0.99123381  0.16379164  0.54708943     0.12400
N1223       N  0.94918696  0.17755526  0.48127287     0.61200
H1224       H  0.99114679  0.18240852  0.45825764     0.08600
O1225       O  0.08786697  0.25647656  0.43041286    -0.40300
O1226       O  0.10264387  0.26454883  0.46793960    -0.39400
O1227       O  0.01339365  0.12470912  0.45428297    -0.39400
O1228       O  0.03607383  0.12845551  0.48713138    -0.37100
O1229       O  0.95217096  0.20028172  0.47831860    -0.38000
O1230       O  0.93117544  0.15834432  0.46974536    -0.34200
O1231       O  0.05247523  0.19269709  0.53189180    -0.35600
O1232       O  0.03130531  0.14984252  0.53295596    -0.39900
C1233       C  0.34431652  0.29859080  0.41878290    -0.13600
C1234       C  0.32772059  0.30652258  0.40769938     0.16800
C1235       C  0.33913114  0.33063175  0.39490186     0.03100
C1236       C  0.36652806  0.34607450  0.39319991    -0.12100
C1237       C  0.38338260  0.33852047  0.40448662    -0.03200
C1238       C  0.37189314  0.31428683  0.41736664     0.02300
C1239       C  0.29885805  0.29106309  0.41222544     0.09200
N1240       N  0.32333456  0.34077650  0.38506749     0.65500
H1241       H  0.37460229  0.36470501  0.38351334     0.18400
N1242       N  0.38772895  0.30529645  0.42920396     0.76000
H1243       H  0.33575439  0.28025566  0.42902814     0.09900
C1244       C  0.28038609  0.27782335  0.39333665     0.03600
C1245       C  0.25329523  0.26459247  0.39872289    -0.05100
C1246       C  0.24412327  0.26436016  0.42268099    -0.23500
C1247       C  0.26276397  0.27697350  0.44165102     0.12900
C1248       C  0.28972754  0.29011025  0.43624987    -0.12600
N1249       N  0.28872535  0.27707363  0.36875956     0.64600
H1250       H  0.23934738  0.25490773  0.38394604     0.12400
N1251       N  0.25474316  0.27609478  0.46666221     0.61200
H1252       H  0.30372020  0.29993126  0.45097719     0.08600
O1253       O  0.39243276  0.28900526  0.41828894    -0.40300
O1254       O  0.39170565  0.30876226  0.45205032    -0.39400
O1255       O  0.31626812  0.35339237  0.39906399    -0.39400
O1256       O  0.32288629  0.34356665  0.36209528    -0.37100
O1257       O  0.25328458  0.25818513  0.48060723    -0.38000
O1258       O  0.25543843  0.29619503  0.47602369    -0.34200
O1259       O  0.29277224  0.25855916  0.36263081    -0.35600
O1260       O  0.28491441  0.28986052  0.35217370    -0.39900
C1261       C  0.26062161  0.46342966  0.21556725    -0.13600
C1262       C  0.26597981  0.44505172  0.20400639     0.16800
C1263       C  0.24584602  0.41846687  0.20287869     0.03100
C1264       C  0.22092700  0.41098696  0.21236853    -0.12100
C1265       C  0.21494743  0.42945226  0.22273367    -0.03200
C1266       C  0.23537218  0.45588995  0.22492792     0.02300
C1267       C  0.29223013  0.45355785  0.19267386     0.09200
N1268       N  0.24978813  0.39901094  0.19066687     0.65500
H1269       H  0.20575296  0.39047928  0.21065477     0.18400
N1270       N  0.23066066  0.47552720  0.23552327     0.76000
H1271       H  0.27603540  0.48384927  0.21703713     0.09900
C1272       C  0.30258097  0.47284016  0.17400172     0.03600
C1273       C  0.32523860  0.47735661  0.16115383    -0.05100
C1274       C  0.33803638  0.46294225  0.16635585    -0.23500
C1275       C  0.32881257  0.44512250  0.18629230     0.12900
C1276       C  0.30619089  0.44071042  0.19925574    -0.12600
N1277       N  0.28939315  0.48674749  0.16668028     0.64600
H1278       H  0.33214338  0.49146139  0.14615602     0.12400
N1279       N  0.34072166  0.42969915  0.19235348     0.61200
H1280       H  0.29885863  0.42630436  0.21398959     0.08600
O1281       O  0.22737892  0.49086097  0.22158187    -0.40300
O1282       O  0.23617604  0.48160178  0.25785252    -0.39400
O1283       O  0.25208760  0.38218431  0.20329455    -0.39400
O1284       O  0.24467945  0.39483173  0.16803432    -0.37100
O1285       O  0.35749417  0.43728917  0.20939272    -0.38000
O1286       O  0.33009179  0.40612593  0.18509148    -0.34200
O1287       O  0.29846512  0.51037288  0.17334593    -0.35600
O1288       O  0.27281567  0.47770673  0.14946887    -0.39900
C1289       C  0.14405058  0.34574761  0.33295723    -0.13600
C1290       C  0.14747107  0.32458777  0.32582566     0.16800
C1291       C  0.14532642  0.31774961  0.30072308     0.03100
C1292       C  0.14082027  0.33260311  0.28325021    -0.12100
C1293       C  0.13809848  0.35430895  0.29018036    -0.03200
C1294       C  0.13916677  0.36044406  0.31553505     0.02300
C1295       C  0.15151468  0.30885888  0.34497423     0.09200
N1296       N  0.14845347  0.29622198  0.29256422     0.65500
H1297       H  0.14005021  0.32735399  0.26400346     0.18400
N1298       N  0.13443259  0.38085246  0.32407926     0.76000
H1299       H  0.14462472  0.35056641  0.35231242     0.09900
C1300       C  0.17308483  0.32038810  0.36127476     0.03600
C1301       C  0.17547015  0.30516079  0.37991001    -0.05100
C1302       C  0.15686525  0.27835968  0.38243057    -0.23500
C1303       C  0.13510563  0.26690723  0.36630329     0.12900
C1304       C  0.13263295  0.28219315  0.34784834    -0.12600
N1305       N  0.19322274  0.34727019  0.35856988     0.64600
H1306       H  0.19234649  0.31418017  0.39207407     0.12400
N1307       N  0.11456080  0.24020659  0.36930483     0.61200
H1308       H  0.11547890  0.27329857  0.33601529     0.08600
O1309       O  0.11130041  0.37522416  0.32985062    -0.40300
O1310       O  0.15356279  0.40255858  0.33092212    -0.39400
O1311       O  0.12840024  0.27485753  0.28646126    -0.39400
O1312       O  0.17100059  0.30042668  0.28627993    -0.37100
O1313       O  0.09513002  0.23527648  0.38293046    -0.38000
O1314       O  0.11281647  0.22293115  0.35429386    -0.34200
O1315       O  0.19455361  0.36418245  0.37381883    -0.35600
O1316       O  0.21265518  0.35283235  0.34471263    -0.39900
C1317       C  0.95268879  0.32181473  0.22919657    -0.13600
C1318       C  0.96958654  0.32475267  0.24872151     0.16800
C1319       C  0.95868662  0.31215842  0.27120492     0.03100
C1320       C  0.93138981  0.29670522  0.27383463    -0.12100
C1321       C  0.91420178  0.29331115  0.25435565    -0.03200
C1322       C  0.92515181  0.30642147  0.23186380     0.02300
C1323       C  0.99859031  0.34007394  0.24534687     0.09200
N1324       N  0.97519460  0.31414863  0.29133096     0.65500
H1325       H  0.92362796  0.28708916  0.29137999     0.18400
N1326       N  0.90880178  0.30365576  0.21135492     0.76000
H1327       H  0.96095081  0.33137073  0.21173328     0.09900
C1328       C  0.01183927  0.32919825  0.23257004     0.03600
C1329       C  0.03930652  0.34312799  0.23094522    -0.05100
C1330       C  0.05441438  0.36819352  0.24178877    -0.23500
C1331       C  0.04095136  0.37946416  0.25396812     0.12900
C1332       C  0.01327911  0.36521877  0.25586712    -0.12600
N1333       N  0.99769103  0.30353546  0.22186316     0.64600
H1334       H  0.04882767  0.33381390  0.22137194     0.12400
N1335       N  0.05483359  0.40551047  0.26383319     0.61200
H1336       H  0.00316499  0.37386362  0.26555343     0.08600
O1337       O  0.90579057  0.28756958  0.19446419    -0.40300
O1338       O  0.90234923  0.32097379  0.20755705    -0.39400
O1339       O  0.97797914  0.32920811  0.30911218    -0.39400
O1340       O  0.98249591  0.29726821  0.29360606    -0.37100
O1341       O  0.05818436  0.40865239  0.28676465    -0.38000
O1342       O  0.05834602  0.42470342  0.25059112    -0.34200
O1343       O  0.99386057  0.30128943  0.19894619    -0.35600
O1344       O  0.99396495  0.28372998  0.23423623    -0.39900
C1345       C  0.83653338  0.33859081  0.33049876    -0.13600
C1346       C  0.85354279  0.34424090  0.35045413     0.16800
C1347       C  0.86323771  0.32703173  0.35579533     0.03100
C1348       C  0.85711116  0.30554324  0.34027799    -0.12100
C1349       C  0.84129707  0.30068063  0.31935942    -0.03200
C1350       C  0.83025974  0.31709130  0.31503321     0.02300
C1351       C  0.86271530  0.36954685  0.36368221     0.09200
N1352       N  0.87907638  0.33091721  0.37701736     0.65500
H1353       H  0.86542217  0.29302410  0.34431649     0.18400
N1354       N  0.81260035  0.31231671  0.29510273     0.76000
H1355       H  0.82870465  0.35152483  0.32639503     0.09900
C1356       C  0.88831462  0.39077130  0.35974084     0.03600
C1357       C  0.89558649  0.41552866  0.36959627    -0.05100
C1358       C  0.87769383  0.42018848  0.38305120    -0.23500
C1359       C  0.85214012  0.39869968  0.38751504     0.12900
C1360       C  0.84491563  0.37367916  0.37778824    -0.12600
N1361       N  0.90651109  0.38815120  0.34399260     0.64600
H1362       H  0.91532334  0.43152249  0.36580289     0.12400
N1363       N  0.83286739  0.40210689  0.40068247     0.61200
H1364       H  0.82499912  0.35756371  0.38057157     0.08600
O1365       O  0.82125311  0.32563166  0.27561119    -0.40300
O1366       O  0.78815393  0.30041430  0.29930213    -0.39400
O1367       O  0.86789313  0.32078009  0.39718124    -0.39400
O1368       O  0.90313756  0.33808299  0.37430600    -0.37100
O1369       O  0.81687867  0.40648015  0.38892986    -0.38000
O1370       O  0.82816484  0.39508417  0.42291612    -0.34200
O1371       O  0.90554120  0.39112649  0.32110848    -0.35600
O1372       O  0.92707085  0.38978097  0.35308750    -0.39900
C1373       C  0.83661934  0.15575640  0.19849352    -0.13600
C1374       C  0.82099700  0.15361190  0.17808743     0.16800
C1375       C  0.80863874  0.16900306  0.17754071     0.03100
C1376       C  0.81244086  0.18645810  0.19677731    -0.12100
C1377       C  0.82828339  0.18907074  0.21717460    -0.03200
C1378       C  0.84039443  0.17326777  0.21795931     0.02300
C1379       C  0.81697391  0.13464354  0.15793626     0.09200
N1380       N  0.79123125  0.16641593  0.15804187     0.65500
H1381       H  0.80242607  0.19783132  0.19579953     0.18400
N1382       N  0.85717517  0.17523701  0.23783429     0.76000
H1383       H  0.84612208  0.14388394  0.19921857     0.09900
C1384       C  0.82874394  0.14317722  0.13454443     0.03600
C1385       C  0.82381889  0.12472384  0.11579546    -0.05100
C1386       C  0.80790042  0.09757648  0.12002048    -0.23500
C1387       C  0.79618366  0.08905294  0.14351244     0.12900
C1388       C  0.80069798  0.10756772  0.16209351    -0.12600
N1389       N  0.84708797  0.17033582  0.13000517     0.64600
H1390       H  0.83348056  0.13162969  0.09811001     0.12400
N1391       N  0.77894204  0.06174763  0.14859022     0.61200
H1392       H  0.79132710  0.10074920  0.17990867     0.08600
O1393       O  0.88173713  0.19008853  0.23563485    -0.40300
O1394       O  0.84838282  0.15787953  0.25446044    -0.39400
O1395       O  0.76695017  0.15029944  0.16044720    -0.39400
O1396       O  0.79865092  0.18461880  0.14233787    -0.37100
O1397       O  0.78745752  0.04909099  0.16058010    -0.38000
O1398       O  0.75441052  0.05230473  0.14642522    -0.34200
O1399       O  0.87114824  0.17901192  0.13451822    -0.35600
O1400       O  0.84059841  0.18341852  0.11613866    -0.39900
C1401       C  0.80534706  0.95627050  0.99967115    -0.13600
C1402       C  0.78838123  0.95089028  0.97965713     0.16800
C1403       C  0.77814463  0.96788812  0.97516708     0.03100
C1404       C  0.78369876  0.98865437  0.99141915    -0.12100
C1405       C  0.79924755  0.99291891  0.01237088    -0.03200
C1406       C  0.81101925  0.97708044  0.01584218     0.02300
C1407       C  0.77796960  0.92502411  0.96693677     0.09200
N1408       N  0.76145775  0.96390289  0.95458769     0.65500
H1409       H  0.77474017  0.00076548  0.98816303     0.18400
N1410       N  0.82846164  0.98151457  0.03589153     0.76000
H1411       H  0.81311410  0.94327305  0.00370275     0.09900
C1412       C  0.79457807  0.91625535  0.95679446     0.03600
C1413       C  0.78398002  0.88986795  0.94937833    -0.05100
C1414       C  0.75701254  0.87173343  0.95218134    -0.23500
C1415       C  0.74031139  0.88092734  0.96126040     0.12900
C1416       C  0.75089171  0.90719513  0.96854128    -0.12600
N1417       N  0.82228317  0.93372066  0.95436763     0.64600
H1418       H  0.79714565  0.88330824  0.94233686     0.12400
N1419       N  0.71252968  0.86379659  0.96361874     0.61200
H1420       H  0.73786073  0.91331295  0.97678094     0.08600
O1421       O  0.85298314  0.99532813  0.03246228    -0.40300
O1422       O  0.81998137  0.96699324  0.05469543    -0.39400
O1423       O  0.73715604  0.95501812  0.95813694    -0.39400
O1424       O  0.77169332  0.97543458  0.93458516    -0.37100
O1425       O  0.70288073  0.85427543  0.98442608    -0.38000
O1426       O  0.69753960  0.86333651  0.94677218    -0.34200
O1427       O  0.83782940  0.93162738  0.96900187    -0.35600
O1428       O  0.83122511  0.94640862  0.93459843    -0.39900
C1429       C  0.37824975  0.84985617  0.12783901    -0.13600
C1430       C  0.37483282  0.86603669  0.14478892     0.16800
C1431       C  0.39660172  0.89032844  0.15138934     0.03100
C1432       C  0.42150064  0.89750128  0.14204842    -0.12100
C1433       C  0.42556138  0.88083417  0.12610023    -0.03200
C1434       C  0.40332902  0.85713369  0.11823917     0.02300
C1435       C  0.34987925  0.85578734  0.15868403     0.09200
N1436       N  0.39402454  0.90724904  0.16881467     0.65500
H1437       H  0.43793217  0.91610217  0.14805489     0.18400
N1438       N  0.40584221  0.83981752  0.10129168     0.76000
H1439       H  0.36152810  0.83102546  0.12275437     0.09900
C1440       C  0.32995844  0.86134103  0.15196572     0.03600
C1441       C  0.30844749  0.85426573  0.16776533    -0.05100
C1442       C  0.30639122  0.84169269  0.19040246    -0.23500
C1443       C  0.32579667  0.83479509  0.19625669     0.12900
C1444       C  0.34725199  0.84201725  0.18047065    -0.12600
N1445       N  0.33158951  0.87467822  0.12949341     0.64600
H1446       H  0.29383759  0.85963830  0.16265124     0.12400
N1447       N  0.32438010  0.82079177  0.21824330     0.61200
H1448       H  0.36246287  0.83747980  0.18563185     0.08600
O1449       O  0.40629056  0.81980903  0.10930642    -0.40300
O1450       O  0.40152915  0.84111144  0.07875570    -0.39400
O1451       O  0.39973312  0.90651398  0.19104779    -0.39400
O1452       O  0.39216816  0.92662997  0.16120637    -0.37100
O1453       O  0.31404661  0.79604278  0.21742713    -0.38000
O1454       O  0.33890189  0.83319071  0.23619999    -0.34200
O1455       O  0.31885530  0.86142426  0.11103735    -0.35600
O1456       O  0.34037055  0.89922688  0.12975374    -0.39900
C1457       C  0.49125753  0.01980441  0.99939020    -0.13600
C1458       C  0.48095285  0.99269363  0.99589101     0.16800
C1459       C  0.46714915  0.98094482  0.97401843     0.03100
C1460       C  0.46547338  0.99670484  0.95557471    -0.12100
C1461       C  0.47626152  0.02399102  0.95878569    -0.03200
C1462       C  0.48864864  0.03540670  0.98140456     0.02300
C1463       C  0.48491884  0.97742673  0.01551377     0.09200
N1464       N  0.45318956  0.95297506  0.97086623     0.65500
H1465       H  0.45490683  0.98728311  0.93885268     0.18400
N1466       N  0.49869074  0.06271204  0.98659415     0.76000
H1467       H  0.50149576  0.02900736  0.01631729     0.09900
C1468       C  0.49837895  0.96339217  0.01104614     0.03600
C1469       C  0.50252586  0.95014040  0.03035658    -0.05100
C1470       C  0.49448460  0.95136926  0.05441401    -0.23500
C1471       C  0.48154683  0.96585616  0.05904571     0.12900
C1472       C  0.47668102  0.97850483  0.03958851    -0.12600
N1473       N  0.50961604  0.96388442  0.98751788     0.64600
H1474       H  0.51288153  0.93941372  0.02663290     0.12400
N1475       N  0.47243310  0.96718849  0.08314425     0.61200
H1476       H  0.46645327  0.98935216  0.04330957     0.08600
O1477       O  0.52303022  0.07859834  0.98422032    -0.40300
O1478       O  0.48477708  0.06955750  0.99896237    -0.39400
O1479       O  0.43120467  0.93960881  0.98144600    -0.39400
O1480       O  0.45877579  0.94304285  0.95279669    -0.37100
O1481       O  0.48543702  0.98769896  0.09589474    -0.38000
O1482       O  0.44906356  0.95086368  0.08928320    -0.34200
O1483       O  0.53113297  0.98387840  0.98155126    -0.35600
O1484       O  0.50233673  0.94248475  0.97623931    -0.39900
C1485       C  0.62073884  0.93699894  0.07234665    -0.13600
C1486       C  0.63813559  0.95879588  0.08654609     0.16800
C1487       C  0.62776349  0.96960593  0.10335375     0.03100
C1488       C  0.60050887  0.95825982  0.10614732    -0.12100
C1489       C  0.58275550  0.93630400  0.09212467    -0.03200
C1490       C  0.59327297  0.92572175  0.07489764     0.02300
C1491       C  0.66695489  0.97159664  0.08214764     0.09200
N1492       N  0.64460996  0.99312184  0.11668103     0.65500
H1493       H  0.59329644  0.96720174  0.11927086     0.18400
N1494       N  0.57657947  0.90402482  0.05945987     0.76000
H1495       H  0.62856313  0.92890476  0.05892478     0.09900
C1496       C  0.68427325  0.97061170  0.09952892     0.03600
C1497       C  0.71157643  0.98501987  0.09550795    -0.05100
C1498       C  0.72215283  0.00033362  0.07419040    -0.23500
C1499       C  0.70454374  0.00016634  0.05624141     0.12900
C1500       C  0.67732372  0.98606089  0.06049342    -0.12600
N1501       N  0.67444082  0.95444245  0.12096092     0.64600
H1502       H  0.72456241  0.98435841  0.10931153     0.12400
N1503       N  0.71380631  0.01357216  0.03327610     0.61200
H1504       H  0.66413839  0.98659456  0.04682248     0.08600
O1505       O  0.57219677  0.88122758  0.06491958    -0.40300
O1506       O  0.57167905  0.90846892  0.03797152    -0.39400
O1507       O  0.65091174  0.01515327  0.10716260    -0.39400
O1508       O  0.64741312  0.99178741  0.13953510    -0.37100
O1509       O  0.71561904  0.00121896  0.01499821    -0.38000
O1510       O  0.71434604  0.03517945  0.02989857    -0.34200
O1511       O  0.66934075  0.93081290  0.11982651    -0.35600
O1512       O  0.67736698  0.96516204  0.14174766    -0.39900
C1513       C  0.84426540  0.76626940  0.01378174    -0.13600
C1514       C  0.83496461  0.77834855  0.03013047     0.16800
C1515       C  0.84252054  0.78107597  0.05505347     0.03100
C1516       C  0.85941950  0.77198561  0.06303241    -0.12100
C1517       C  0.86854040  0.75971263  0.04658581    -0.03200
C1518       C  0.86097791  0.75716968  0.02162640     0.02300
C1519       C  0.81645809  0.78652767  0.02040608     0.09200
N1520       N  0.83324769  0.79297251  0.07242293     0.65500
H1521       H  0.86503015  0.77409749  0.08225154     0.18400
N1522       N  0.87068774  0.74607974  0.00376930     0.76000
H1523       H  0.83824632  0.76360021  0.99465722     0.09900
C1524       C  0.82397712  0.80435659  0.00058790     0.03600
C1525       C  0.80487193  0.80680616  0.98747060    -0.05100
C1526       C  0.77794937  0.79137673  0.99316088    -0.23500
C1527       C  0.77051899  0.77480818  0.01404679     0.12900
C1528       C  0.78984377  0.77264917  0.02753680    -0.12600
N1529       N  0.85077652  0.81886993  0.99249123     0.64600
H1530       H  0.81116217  0.82003012  0.97178637     0.12400
N1531       N  0.74345243  0.75807545  0.02031594     0.61200
H1532       H  0.78374793  0.75847312  0.04243533     0.08600
O1533       O  0.85643720  0.72236942  0.99731410    -0.40300
O1534       O  0.89059284  0.76114816  0.99096927    -0.39400
O1535       O  0.81465627  0.77847587  0.08680691    -0.39400
O1536       O  0.84731168  0.81718088  0.07722323    -0.37100
O1537       O  0.73154079  0.73473123  0.01232447    -0.38000
O1538       O  0.73367934  0.76431754  0.03805850    -0.34200
O1539       O  0.85784000  0.81110510  0.97377318    -0.35600
O1540       O  0.86510469  0.84219661  0.99993213    -0.39900
C1541       C  0.04727050  0.85611274  0.96220652    -0.13600
C1542       C  0.04239392  0.83495766  0.97761091     0.16800
C1543       C  0.06237864  0.82882288  0.98181218     0.03100
C1544       C  0.08705880  0.84413881  0.97110982    -0.12100
C1545       C  0.09265135  0.86604610  0.95629992    -0.03200
C1546       C  0.07219271  0.87162441  0.95136738     0.02300
C1547       C  0.01668382  0.81936276  0.98982528     0.09200
N1548       N  0.05811724  0.80756706  0.99766878     0.65500
H1549       H  0.10219159  0.83912168  0.97506431     0.18400
N1550       N  0.07646899  0.89323002  0.93607534     0.76000
H1551       H  0.03177422  0.86076410  0.95883524     0.09900
C1552       C  0.01188234  0.82700201  0.01288819     0.03600
C1553       C  0.98971329  0.80949235  0.02637767    -0.05100
C1554       C  0.97203336  0.78409753  0.01741853    -0.23500
C1555       C  0.97579298  0.77743223  0.99330812     0.12900
C1556       C  0.99824269  0.79498148  0.97988017    -0.12600
N1557       N  0.03019244  0.85181272  0.02352399     0.64600
H1558       H  0.98711334  0.81555638  0.04455687     0.12400
N1559       N  0.95747841  0.75286686  0.98236724     0.61200
H1560       H  0.00179516  0.78917708  0.96193362     0.08600
O1561       O  0.07972317  0.91421830  0.94585845    -0.40300
O1562       O  0.07099816  0.88926588  0.91349178    -0.39400
O1563       O  0.05418975  0.78609187  0.98846829    -0.39400
O1564       O  0.06326585  0.81188512  0.02028357    -0.37100
O1565       O  0.93891622  0.75149163  0.96953497    -0.38000
O1566       O  0.96300690  0.73461096  0.98108415    -0.34200
O1567       O  0.02477759  0.87017797  0.02388806    -0.35600
O1568       O  0.04839880  0.85340156  0.03704847    -0.39900
C1569       C  0.12525759  0.51578133  0.12232720    -0.13600
C1570       C  0.11052662  0.49699934  0.14036965     0.16800
C1571       C  0.08831451  0.49670007  0.15070202     0.03100
C1572       C  0.08134476  0.51513817  0.14309013    -0.12100
C1573       C  0.09635823  0.53464511  0.12552566    -0.03200
C1574       C  0.11834235  0.53450615  0.11474448     0.02300
C1575       C  0.12043634  0.48039444  0.15099695     0.09200
N1576       N  0.07380007  0.47915230  0.17036398     0.65500
H1577       H  0.06435786  0.51455583  0.15180635     0.18400
N1578       N  0.13429000  0.55353982  0.09668906     0.76000
H1579       H  0.14266552  0.51636559  0.11460367     0.09900
C1580       C  0.10698530  0.45278883  0.14812129     0.03600
C1581       C  0.11375863  0.43746427  0.16284019    -0.05100
C1582       C  0.13362244  0.44925995  0.18057675    -0.23500
C1583       C  0.14855841  0.47701825  0.18183228     0.12900
C1584       C  0.14183435  0.49229582  0.16707791    -0.12600
N1585       N  0.08601418  0.44001326  0.13086008     0.64600
H1586       H  0.10234054  0.41616121  0.16139710     0.12400
N1587       N  0.17051943  0.49000148  0.19802309     0.61200
H1588       H  0.15254538  0.51356977  0.16911436     0.08600
O1589       O  0.13068472  0.54734249  0.07422291    -0.40300
O1590       O  0.15524651  0.57380089  0.10323427    -0.39400
O1591       O  0.08130667  0.48597543  0.19222215    -0.39400
O1592       O  0.05063256  0.46073237  0.16651892    -0.37100
O1593       O  0.19342560  0.49859318  0.18946531    -0.38000
O1594       O  0.16761419  0.49862421  0.21840677    -0.34200
O1595       O  0.09134074  0.43654276  0.10913655    -0.35600
O1596       O  0.06267898  0.42648485  0.13863910    -0.39900
C1597       C  0.04111450  0.67792691  0.08956622    -0.13600
C1598       C  0.01465179  0.66726382  0.09662793     0.16800
C1599       C  0.00076936  0.64123295  0.10547062     0.03100
C1600       C  0.01357699  0.62658718  0.10762377    -0.12100
C1601       C  0.04014709  0.63710772  0.10075818    -0.03200
C1602       C  0.05395407  0.66311298  0.09152324     0.02300
C1603       C  0.00099189  0.68241931  0.09228895     0.09200
N1604       N  0.97326590  0.62883706  0.11103844     0.65500
H1605       H  0.00231792  0.60648682  0.11429003     0.18400
N1606       N  0.08105103  0.67500523  0.08462455     0.76000
H1607       H  0.05180076  0.69783161  0.08233637     0.09900
C1608       C  0.99300279  0.69294254  0.11171687     0.03600
C1609       C  0.97781336  0.70486349  0.10667706    -0.05100
C1610       C  0.97052092  0.70650754  0.08248141    -0.23500
C1611       C  0.97997659  0.69740236  0.06299219     0.12900
C1612       C  0.99489670  0.68532821  0.06806464    -0.12600
N1613       N  0.00047423  0.69202506  0.13652229     0.64600
H1614       H  0.97109408  0.71219473  0.12179270     0.12400
N1615       N  0.97522616  0.70095942  0.03790059     0.61200
H1616       H  0.00146506  0.67780387  0.05297900     0.08600
O1617       O  0.09853039  0.68965157  0.09977673    -0.40300
O1618       O  0.08709623  0.67557205  0.06223742    -0.39400
O1619       O  0.95681981  0.61628843  0.09433394    -0.39400
O1620       O  0.96583794  0.62466167  0.13320434    -0.37100
O1621       O  0.99183009  0.72134464  0.02654365    -0.38000
O1622       O  0.95787245  0.68168610  0.02590522    -0.34200
O1623       O  0.02192437  0.71063028  0.14448237    -0.35600
O1624       O  0.98332978  0.67665605  0.15166631    -0.39900
C1625       C  0.16475410  0.67764699  0.17572768    -0.13600
C1626       C  0.15359045  0.68168132  0.19699553     0.16800
C1627       C  0.12680475  0.66404733  0.20222913     0.03100
C1628       C  0.11151671  0.64375518  0.18566900    -0.12100
C1629       C  0.12222671  0.64068317  0.16352298    -0.03200
C1630       C  0.14947852  0.65749851  0.15904139     0.02300
C1631       C  0.16873755  0.70699449  0.21050941     0.09200
N1632       N  0.11461461  0.66699269  0.22391674     0.65500
H1633       H  0.09077586  0.63103432  0.18976606     0.18400
N1634       N  0.16189346  0.65507348  0.13728666     0.76000
H1635       H  0.18520046  0.69127509  0.17120912     0.09900
C1636       C  0.19361357  0.71501864  0.22107056     0.03600
C1637       C  0.20907645  0.74095303  0.22968588    -0.05100
C1638       C  0.20047511  0.75940931  0.22748456    -0.23500
C1639       C  0.17510357  0.75096470  0.21777716     0.12900
C1640       C  0.15962458  0.72505039  0.20951927    -0.12600
N1641       N  0.20372645  0.69730572  0.22263574     0.64600
H1642       H  0.22846824  0.74699972  0.23704793     0.12400
N1643       N  0.16487326  0.76855573  0.21564474     0.61200
H1644       H  0.14079785  0.71940205  0.20103318     0.08600
O1645       O  0.17424552  0.64251297  0.13816705    -0.40300
O1646       O  0.16553113  0.67009572  0.11926428    -0.39400
O1647       O  0.09961095  0.67665905  0.22223649    -0.39400
O1648       O  0.11379599  0.65447930  0.24308928    -0.37100
O1649       O  0.14981282  0.76870732  0.23224844    -0.38000
O1650       O  0.16565659  0.77885514  0.19505196    -0.34200
O1651       O  0.22114913  0.69951283  0.20753124    -0.35600
O1652       O  0.20017319  0.68427624  0.24213933    -0.39900
C1653       C  0.51065348  0.78302580  0.21052881    -0.13600
C1654       C  0.52877367  0.80638371  0.19857820     0.16800
C1655       C  0.55522083  0.81265492  0.19652607     0.03100
C1656       C  0.56296182  0.79526213  0.20554358    -0.12100
C1657       C  0.54477764  0.77122398  0.21652008    -0.03200
C1658       C  0.51842183  0.76546126  0.21963045     0.02300
C1659       C  0.51977818  0.82317765  0.18655320     0.09200
N1660       N  0.57410199  0.83574371  0.18372931     0.65500
H1661       H  0.58338356  0.80037912  0.20321641     0.18400
N1662       N  0.49906033  0.74146202  0.23081755     0.76000
H1663       H  0.49022932  0.77810310  0.21223162     0.09900
C1664       C  0.50333854  0.81400195  0.16584501     0.03600
C1665       C  0.49829570  0.83129304  0.15241366    -0.05100
C1666       C  0.50945543  0.85798675  0.15903715    -0.23500
C1667       C  0.52432741  0.86668377  0.18096684     0.12900
C1668       C  0.52954512  0.84928138  0.19435326    -0.12600
N1669       N  0.49325383  0.78767751  0.15708585     0.64600
H1670       H  0.48635992  0.82385592  0.13598753     0.12400
N1671       N  0.53501226  0.89315643  0.18950073     0.61200
H1672       H  0.54192861  0.85638023  0.21054194     0.08600
O1673       O  0.48391718  0.72230659  0.21734380    -0.40300
O1674       O  0.49307885  0.74158483  0.25312826    -0.39400
O1675       O  0.59137354  0.85504594  0.19575639    -0.39400
O1676       O  0.57696040  0.83463490  0.16081706    -0.37100
O1677       O  0.55900575  0.90949655  0.18567944    -0.38000
O1678       O  0.52247951  0.89830900  0.20544240    -0.34200
O1679       O  0.46930058  0.77096159  0.16053934    -0.35600
O1680       O  0.50647115  0.78283690  0.14166236    -0.39900
C1681       C  0.52010007  0.63638651  0.14926486    -0.13600
C1682       C  0.49276267  0.62425909  0.15316043     0.16800
C1683       C  0.48299826  0.63557798  0.17018828     0.03100
C1684       C  0.50057973  0.65760421  0.18382688    -0.12100
C1685       C  0.52791344  0.66835840  0.18144977    -0.03200
C1686       C  0.53772954  0.65808967  0.16338144     0.02300
C1687       C  0.47579369  0.59723750  0.14347361     0.09200
N1688       N  0.45557965  0.62337304  0.17598170     0.65500
H1689       H  0.49270780  0.66534700  0.19755910     0.18400
N1690       N  0.56529876  0.66735220  0.16106450     0.76000
H1691       H  0.52787344  0.62762380  0.13651918     0.09900
C1692       C  0.45388465  0.59017758  0.12814089     0.03600
C1693       C  0.43756320  0.56366913  0.12152576    -0.05100
C1694       C  0.44289591  0.54396645  0.12961643    -0.23500
C1695       C  0.46569511  0.55149488  0.14399382     0.12900
C1696       C  0.48154945  0.57775302  0.15089481    -0.12600
N1697       N  0.44852171  0.60967733  0.11835446     0.64600
H1698       H  0.42056564  0.55851377  0.11004986     0.12400
N1699       N  0.47340724  0.53291827  0.15157601     0.61200
H1700       H  0.49847609  0.58294071  0.16251557     0.08600
O1701       O  0.57771211  0.68119694  0.14270342    -0.40300
O1702       O  0.57558253  0.65693639  0.17394683    -0.39400
O1703       O  0.44625848  0.60572618  0.19233181    -0.39400
O1704       O  0.44316140  0.63515149  0.17046611    -0.37100
O1705       O  0.46737939  0.52309554  0.17287077    -0.38000
O1706       O  0.49114255  0.53136154  0.13967425    -0.34200
O1707       O  0.46136822  0.62282039  0.09983027    -0.35600
O1708       O  0.42716010  0.60888558  0.12382764    -0.39900
C1709       C  0.85186735  0.53204840  0.31846806    -0.13600
C1710       C  0.82491395  0.51957160  0.32422755     0.16800
C1711       C  0.81467130  0.49956466  0.34213556     0.03100
C1712       C  0.83152359  0.49329334  0.35475982    -0.12100
C1713       C  0.85880507  0.50686935  0.35030312    -0.03200
C1714       C  0.86889123  0.52586575  0.33126257     0.02300
C1715       C  0.80793674  0.52858201  0.31258290     0.09200
N1716       N  0.78754961  0.48691061  0.34917583     0.65500
H1717       H  0.82323210  0.47845817  0.36910920     0.18400
N1718       N  0.89637060  0.54009143  0.32556962     0.76000
H1719       H  0.85986681  0.54726442  0.30444608     0.09900
C1720       C  0.81258538  0.55433138  0.31649850     0.03600
C1721       C  0.79529451  0.56187258  0.30685441    -0.05100
C1722       C  0.77290806  0.54416838  0.29341154    -0.23500
C1723       C  0.76878951  0.51861560  0.28866910     0.12900
C1724       C  0.78626079  0.51105549  0.29835304    -0.12600
N1725       N  0.83388207  0.57260422  0.33151435     0.64600
H1726       H  0.79921451  0.58174095  0.31053002     0.12400
N1727       N  0.74664592  0.49983914  0.27486632     0.61200
H1728       H  0.78265770  0.49122798  0.29508149     0.08600
O1729       O  0.90484735  0.53289504  0.30747362    -0.40300
O1730       O  0.91044755  0.56288735  0.33434476    -0.39400
O1731       O  0.77227199  0.46352413  0.34237426    -0.39400
O1732       O  0.78053868  0.49654691  0.36645502    -0.37100
O1733       O  0.74968319  0.49613696  0.25249939    -0.38000
O1734       O  0.72620900  0.48311712  0.28608801    -0.34200
O1735       O  0.85400206  0.59119766  0.32144744    -0.35600
O1736       O  0.83001989  0.57383071  0.35421435    -0.39900
C1737       C  0.82642647  0.64767334  0.13838557    -0.13600
C1738       C  0.83092339  0.65949031  0.16175629     0.16800
C1739       C  0.85384059  0.68401451  0.16539084     0.03100
C1740       C  0.87116496  0.69646578  0.14583027    -0.12100
C1741       C  0.86640401  0.68525687  0.12212792    -0.03200
C1742       C  0.84384319  0.66024256  0.11864415     0.02300
C1743       C  0.81220508  0.64570157  0.18238711     0.09200
N1744       N  0.85944572  0.69707068  0.18867767     0.65500
H1745       H  0.88836047  0.71551338  0.14933923     0.18400
N1746       N  0.83824455  0.64726849  0.09535319     0.76000
H1747       H  0.80936752  0.62837305  0.13546548     0.09900
C1748       C  0.78497535  0.63663773  0.18020443     0.03600
C1749       C  0.76790707  0.62297586  0.19969707    -0.05100
C1750       C  0.77742217  0.61855010  0.22173957    -0.23500
C1751       C  0.80457588  0.62774623  0.22414266     0.12900
C1752       C  0.82163490  0.64098495  0.20446216    -0.12600
N1753       N  0.77437394  0.64156246  0.15853067     0.64600
H1754       H  0.74698670  0.61583957  0.19763770     0.12400
N1755       N  0.81483968  0.62223057  0.24573068     0.61200
H1756       H  0.84231841  0.64697628  0.20621730     0.08600
O1757       O  0.82118234  0.64775943  0.08159452    -0.40300
O1758       O  0.84586593  0.63089571  0.09106465    -0.39400
O1759       O  0.87781406  0.69824391  0.20168432    -0.39400
O1760       O  0.85028863  0.71207113  0.19355625    -0.37100
O1761       O  0.81526954  0.60090772  0.24713521    -0.38000
O1762       O  0.82820771  0.64056668  0.26069625    -0.34200
O1763       O  0.76086196  0.62279921  0.14400259    -0.35600
O1764       O  0.77318996  0.66247927  0.15705128    -0.39900
C1765       C  0.60563213  0.63411167  0.25839244    -0.13600
C1766       C  0.63308075  0.64605142  0.25550421     0.16800
C1767       C  0.64763799  0.67331809  0.25044992     0.03100
C1768       C  0.63466729  0.68774982  0.24759784    -0.12100
C1769       C  0.60721818  0.67583137  0.25002577    -0.03200
C1770       C  0.59264683  0.64874317  0.25592454     0.02300
C1771       C  0.64623070  0.62984148  0.25659193     0.09200
N1772       N  0.67571515  0.68682136  0.24850813     0.65500
H1773       H  0.64630855  0.70862253  0.24345697     0.18400
N1774       N  0.56460971  0.63543601  0.25801491     0.76000
H1775       H  0.59405297  0.61309795  0.26180675     0.09900
C1776       C  0.64371075  0.61414928  0.27725965     0.03600
C1777       C  0.65819967  0.60101778  0.27836508    -0.05100
C1778       C  0.67500238  0.60285895  0.25908530    -0.23500
C1779       C  0.67664482  0.61742648  0.23793163     0.12900
C1780       C  0.66211548  0.63056258  0.23676055    -0.12600
N1781       N  0.62760518  0.61237102  0.29781108     0.64600
H1782       H  0.65695019  0.58992587  0.29479425     0.12400
N1783       N  0.69426532  0.62054562  0.21828897     0.61200
H1784       H  0.66374577  0.64193404  0.22045314     0.08600
O1785       O  0.55411079  0.63046015  0.27908970    -0.40300
O1786       O  0.55073797  0.62365008  0.23952704    -0.39400
O1787       O  0.68640656  0.69428436  0.22764328    -0.39400
O1788       O  0.68935157  0.69674742  0.26756914    -0.37100
O1789       O  0.68533662  0.60690783  0.19903680    -0.38000
O1790       O  0.71706157  0.64047479  0.21797584    -0.34200
O1791       O  0.60553176  0.59181686  0.30064747    -0.35600
O1792       O  0.63783270  0.62792808  0.31569752    -0.39900
C1793       C  0.57676526  0.48022241  0.35981359    -0.13600
C1794       C  0.59472065  0.47118573  0.36267497     0.16800
C1795       C  0.58654725  0.44714216  0.37507453     0.03100
C1796       C  0.56045562  0.43224515  0.38353757    -0.12100
C1797       C  0.54216409  0.44084154  0.37986636    -0.03200
C1798       C  0.55080214  0.46547362  0.36825298     0.02300
C1799       C  0.62130549  0.48708737  0.35151996     0.09200
N1800       N  0.60452260  0.43781244  0.37968305     0.65500
H1801       H  0.55433905  0.41352394  0.39251028     0.18400
N1802       N  0.53362426  0.47605921  0.36508668     0.76000
H1803       H  0.58286436  0.49879104  0.35051577     0.09900
C1804       C  0.62864455  0.47845763  0.33024844     0.03600
C1805       C  0.65125130  0.49600358  0.31713573    -0.05100
C1806       C  0.66670968  0.52253551  0.32426040    -0.23500
C1807       C  0.66019316  0.53074976  0.34641100     0.12900
C1808       C  0.63766204  0.51301392  0.35974865    -0.12600
N1809       N  0.61203803  0.45283078  0.32020568     0.64600
H1810       H  0.65585842  0.48900104  0.30037759     0.12400
N1811       N  0.67501806  0.55735238  0.35479545     0.61200
H1812       H  0.63209252  0.51995324  0.37598035     0.08600
O1813       O  0.52368149  0.47482541  0.34423231    -0.40300
O1814       O  0.53353391  0.49175657  0.38099795    -0.39400
O1815       O  0.61839191  0.44534685  0.39887761    -0.39400
O1816       O  0.60136343  0.41738178  0.36877130    -0.37100
O1817       O  0.66767701  0.57360061  0.34905648    -0.38000
O1818       O  0.69128536  0.56286676  0.37205741    -0.34200
O1819       O  0.59378083  0.44948642  0.30579396    -0.35600
O1820       O  0.61997617  0.43632945  0.32007951    -0.39900
C1821       C  0.16805263  0.44069488  0.72816460    -0.13600
C1822       C  0.16384119  0.43997472  0.70271705     0.16800
C1823       C  0.17760932  0.43210307  0.68676926     0.03100
C1824       C  0.19431374  0.42387542  0.69639888    -0.12100
C1825       C  0.19819586  0.42382930  0.72184075    -0.03200
C1826       C  0.18548609  0.43305191  0.73785748     0.02300
C1827       C  0.14456526  0.44665755  0.69260498     0.09200
N1828       N  0.17463635  0.43216585  0.66069259     0.65500
H1829       H  0.20441906  0.41745783  0.68376142     0.18400
N1830       N  0.18933482  0.43398023  0.76383665     0.76000
H1831       H  0.15762306  0.44699489  0.74049206     0.09900
C1832       C  0.11789628  0.42729778  0.69029756     0.03600
C1833       C  0.10078631  0.43259378  0.67652326    -0.05100
C1834       C  0.11040850  0.45706300  0.66466631    -0.23500
C1835       C  0.13671794  0.47691160  0.66835920     0.12900
C1836       C  0.15367930  0.47164104  0.68225290    -0.12600
N1837       N  0.10837137  0.40148080  0.70023909     0.64600
H1838       H  0.08104890  0.41750669  0.67382516     0.12400
N1839       N  0.14664509  0.50251318  0.65786455     0.61200
H1840       H  0.17400355  0.48649787  0.68407109     0.08600
O1841       O  0.17281253  0.41528613  0.77704652    -0.40300
O1842       O  0.20510692  0.45566913  0.77380551    -0.39400
O1843       O  0.19047825  0.45221534  0.64847903    -0.39400
O1844       O  0.16039617  0.41071476  0.64963033    -0.37100
O1845       O  0.14616622  0.52042211  0.67045773    -0.38000
O1846       O  0.16072974  0.50860144  0.63872302    -0.34200
O1847       O  0.10194837  0.39718615  0.72264767    -0.35600
O1848       O  0.11009417  0.38421113  0.68770259    -0.39900
C1849       C  0.33281786  0.49145995  0.67584051    -0.13600
C1850       C  0.34271550  0.48140328  0.65787524     0.16800
C1851       C  0.32954057  0.45397280  0.65364547     0.03100
C1852       C  0.30779629  0.43711957  0.66825977    -0.12100
C1853       C  0.29919619  0.44702115  0.68754570    -0.03200
C1854       C  0.31132287  0.47464311  0.69064944     0.02300
C1855       C  0.36925497  0.49922377  0.64744324     0.09200
N1856       N  0.33942716  0.44266716  0.63625188     0.65500
H1857       H  0.29882261  0.41599626  0.66561974     0.18400
N1858       N  0.30239274  0.48595989  0.70900979     0.76000
H1859       H  0.34272944  0.51252982  0.67922901     0.09900
C1860       C  0.37375536  0.50686914  0.62247862     0.03600
C1861       C  0.39959214  0.52361115  0.61402779    -0.05100
C1862       C  0.42109109  0.53298303  0.63013144    -0.23500
C1863       C  0.41630634  0.52605447  0.65529167     0.12900
C1864       C  0.39067007  0.50921748  0.66357624    -0.12600
N1865       N  0.35236866  0.49860118  0.60570489     0.64600
H1866       H  0.40287880  0.52905217  0.59473765     0.12400
N1867       N  0.43710783  0.53694531  0.67293518     0.61200
H1868       H  0.38740885  0.50398821  0.68293019     0.08600
O1869       O  0.28605085  0.49314029  0.70320640    -0.40300
O1870       O  0.31497345  0.49408077  0.72888802    -0.39400
O1871       O  0.35591596  0.43612134  0.64323131    -0.39400
O1872       O  0.32690892  0.43309265  0.61657067    -0.37100
O1873       O  0.44236597  0.55812008  0.68374052    -0.38000
O1874       O  0.44581586  0.52275623  0.68157032    -0.34200
O1875       O  0.34195346  0.51283496  0.60294795    -0.35600
O1876       O  0.34883424  0.48170233  0.58948834    -0.39900
C1877       C  0.41994615  0.15876728  0.81750211    -0.13600
C1878       C  0.44291472  0.16134232  0.80688982     0.16800
C1879       C  0.45582050  0.18026579  0.78830898     0.03100
C1880       C  0.44578540  0.19652503  0.78095411    -0.12100
C1881       C  0.42294629  0.19434851  0.79183825    -0.03200
C1882       C  0.40984111  0.17488774  0.81029681     0.02300
C1883       C  0.45312153  0.14458113  0.81671178     0.09200
N1884       N  0.47874360  0.18285502  0.77633119     0.65500
H1885       H  0.45609007  0.21103773  0.76668343     0.18400
N1886       N  0.38642726  0.17122921  0.82224042     0.76000
H1887       H  0.40994137  0.14430024  0.83191486     0.09900
C1888       C  0.47458437  0.15501227  0.83303180     0.03600
C1889       C  0.47954516  0.13800212  0.84710106    -0.05100
C1890       C  0.46315510  0.11057106  0.84571486    -0.23500
C1891       C  0.44278826  0.10004596  0.82809218     0.12900
C1892       C  0.43800459  0.11714406  0.81374927    -0.12600
N1893       N  0.48964294  0.18267188  0.83769492     0.64600
H1894       H  0.49537250  0.14642535  0.86043902     0.12400
N1895       N  0.42504151  0.07232289  0.82638935     0.61200
H1896       H  0.42117687  0.10894254  0.80151645     0.08600
O1897       O  0.38813532  0.18150491  0.84307935    -0.40300
O1898       O  0.36433092  0.15304326  0.81502558    -0.39400
O1899       O  0.47601721  0.16957834  0.75714155    -0.39400
O1900       O  0.50081704  0.20282556  0.78072184    -0.37100
O1901       O  0.40437181  0.06197954  0.83935624    -0.38000
O1902       O  0.42691221  0.05965264  0.80841882    -0.34200
O1903       O  0.48228568  0.19245571  0.85455931    -0.35600
O1904       O  0.51310544  0.19535162  0.83005329    -0.39900
C1905       C  0.37005361  0.33776420  0.74819780    -0.13600
C1906       C  0.34389111  0.32760074  0.75615322     0.16800
C1907       C  0.32963067  0.30138573  0.76432433     0.03100
C1908       C  0.34173742  0.28606085  0.76515855    -0.12100
C1909       C  0.36812939  0.29611428  0.75789681    -0.03200
C1910       C  0.38231017  0.32226709  0.74899795     0.02300
C1911       C  0.33053710  0.34326261  0.75340422     0.09200
N1912       N  0.30244592  0.28964559  0.77097944     0.65500
H1913       H  0.33013262  0.26588815  0.77154969     0.18400
N1914       N  0.40913777  0.33359260  0.74130823     0.76000
H1915       H  0.38095853  0.35779096  0.74129596     0.09900
C1916       C  0.32483088  0.35467965  0.77371162     0.03600
C1917       C  0.30923737  0.36649298  0.77050972    -0.05100
C1918       C  0.29892410  0.36683132  0.74735660    -0.23500
C1919       C  0.30564359  0.35630075  0.72688665     0.12900
C1920       C  0.32128653  0.34466523  0.73012338    -0.12600
N1921       N  0.33458606  0.35432382  0.79766385     0.64600
H1922       H  0.30444097  0.37462244  0.78636975     0.12400
N1923       N  0.29701284  0.35750367  0.70260702     0.61200
H1924       H  0.32571488  0.33604423  0.71439911     0.08600
O1925       O  0.42724429  0.34812333  0.75599842    -0.40300
O1926       O  0.41436128  0.33409579  0.71870324    -0.39400
O1927       O  0.28514750  0.27731073  0.75486409    -0.39400
O1928       O  0.29600141  0.28580023  0.79340344    -0.37100
O1929       O  0.27847182  0.33698216  0.69310104    -0.38000
O1930       O  0.31149366  0.37688302  0.68900611    -0.34200
O1931       O  0.35549412  0.37419595  0.80490720    -0.35600
O1932       O  0.31935519  0.33779637  0.81330023    -0.39900
C1933       C  0.49002799  0.33934597  0.83264704    -0.13600
C1934       C  0.48184027  0.33883314  0.85695336     0.16800
C1935       C  0.45679232  0.31836272  0.86431522     0.03100
C1936       C  0.44049012  0.29916767  0.84727931    -0.12100
C1937       C  0.44847318  0.29999257  0.82271745    -0.03200
C1938       C  0.47388443  0.32032949  0.81560450     0.02300
C1939       C  0.49799090  0.36222173  0.87258794     0.09200
N1940       N  0.44741379  0.31700883  0.88887649     0.65500
H1941       H  0.42121843  0.28379706  0.85329867     0.18400
N1942       N  0.48334411  0.32290383  0.79090778     0.76000
H1943       H  0.50867312  0.35557604  0.82634389     0.09900
C1944       C  0.52522469  0.37197106  0.87625142     0.03600
C1945       C  0.54095059  0.39718602  0.88613573    -0.05100
C1946       C  0.53022124  0.41329440  0.89173441    -0.23500
C1947       C  0.50284630  0.40309860  0.88928742     0.12900
C1948       C  0.48703376  0.37772362  0.87992528    -0.12600
N1949       N  0.53752717  0.35724214  0.86865385     0.64600
H1950       H  0.56200967  0.40489537  0.88779759     0.12400
N1951       N  0.49095218  0.41863226  0.89535307     0.61200
H1952       H  0.46634136  0.37089372  0.87670752     0.08600
O1953       O  0.49961751  0.31539520  0.78569426    -0.40300
O1954       O  0.48036102  0.33787753  0.77619358    -0.39400
O1955       O  0.42996850  0.32324795  0.89298929    -0.39400
O1956       O  0.45143073  0.30363593  0.90467591    -0.37100
O1957       O  0.48539250  0.42972049  0.87837709    -0.38000
O1958       O  0.48076941  0.41630328  0.91636382    -0.34200
O1959       O  0.55115605  0.36379498  0.84918570    -0.35600
O1960       O  0.54062467  0.34302723  0.88419160    -0.39900
C1961       C  0.48532945  0.83467149  0.66557167    -0.13600
C1962       C  0.49704727  0.85905355  0.65346275     0.16800
C1963       C  0.52471785  0.87529161  0.65424151     0.03100
C1964       C  0.53988379  0.86738445  0.66781062    -0.12100
C1965       C  0.52791597  0.84394936  0.68143088    -0.03200
C1966       C  0.50041372  0.82712058  0.67969242     0.02300
C1967       C  0.47978452  0.86904002  0.64435211     0.09200
N1968       N  0.53754389  0.90058004  0.64266816     0.65500
H1969       H  0.56097360  0.88061440  0.66914961     0.18400
N1970       N  0.48737427  0.80277771  0.69287790     0.76000
H1971       H  0.46406633  0.82221073  0.66554723     0.09900
C1972       C  0.46021354  0.85557099  0.62645492     0.03600
C1973       C  0.44234423  0.86414509  0.62075997    -0.05100
C1974       C  0.44319322  0.88581647  0.63288540    -0.23500
C1975       C  0.46286079  0.89916403  0.65097193     0.12900
C1976       C  0.48078477  0.89069661  0.65636898    -0.12600
N1977       N  0.45809539  0.83307339  0.61399860     0.64600
H1978       H  0.42752064  0.85350227  0.60686930     0.12400
N1979       N  0.46445957  0.92071031  0.66482525     0.61200
H1980       H  0.49499558  0.90054112  0.67094073     0.08600
O1981       O  0.48203598  0.78166079  0.68192733    -0.40300
O1982       O  0.47596038  0.80167969  0.71295377    -0.39400
O1983       O  0.54489929  0.92095886  0.65565337    -0.39400
O1984       O  0.54724256  0.90282867  0.62144432    -0.37100
O1985       O  0.45347074  0.91633952  0.68565819    -0.38000
O1986       O  0.48157717  0.94394966  0.65911750    -0.34200
O1987       O  0.44029762  0.81036533  0.62038338    -0.35600
O1988       O  0.46917885  0.83609491  0.59335610    -0.39900
C1989       C  0.26245628  0.79057064  0.72526999    -0.13600
C1990       C  0.26655785  0.81058513  0.70857728     0.16800
C1991       C  0.24461128  0.81097204  0.69866666     0.03100
C1992       C  0.21922879  0.79137644  0.70505112    -0.12100
C1993       C  0.21469382  0.77060040  0.72106973    -0.03200
C1994       C  0.23681221  0.77073106  0.73173584     0.02300
C1995       C  0.29299590  0.82769164  0.69774153     0.09200
N1996       N  0.24770872  0.82982026  0.68034324     0.65500
H1997       H  0.20290057  0.79214909  0.69654494     0.18400
N1998       N  0.23377886  0.75061928  0.74848309     0.76000
H1999       H  0.27926850  0.78981647  0.73263427     0.09900
C2000       C  0.30775466  0.85505367  0.70221551     0.03600
C2001       C  0.32961709  0.87107223  0.68728144    -0.05100
C2002       C  0.33691711  0.86027229  0.66770101    -0.23500
C2003       C  0.32315963  0.83252426  0.66459886     0.12900
C2004       C  0.30151914  0.81667896  0.67956738    -0.12600
N2005       N  0.30057547  0.86690838  0.72151314     0.64600
H2006       H  0.34005180  0.89220714  0.69025613     0.12400
N2007       N  0.33032857  0.82003130  0.64588085     0.61200
H2008       H  0.29037773  0.79563478  0.67607061     0.08600
O2009       O  0.23523472  0.75509216  0.77130464    -0.40300
O2010       O  0.23586464  0.73142345  0.74060128    -0.39400
O2011       O  0.24826605  0.82437818  0.65795248    -0.39400
O2012       O  0.24341652  0.84829857  0.68596125    -0.37100
O2013       O  0.34522705  0.81093968  0.65127624    -0.38000
O2014       O  0.31695955  0.81244617  0.62638060    -0.34200
O2015       O  0.31170848  0.87063907  0.74212732    -0.35600
O2016       O  0.28884705  0.87944228  0.71628388    -0.39900
C2017       C  0.16114965  0.14085587  0.50228509    -0.13600
C2018       C  0.17836379  0.15251019  0.52211630     0.16800
C2019       C  0.18940459  0.17991433  0.52599072     0.03100
C2020       C  0.18401551  0.19508353  0.50954688    -0.12100
C2021       C  0.16808926  0.18366418  0.48882315    -0.03200
C2022       C  0.15592900  0.15600913  0.48572289     0.02300
C2023       C  0.18800984  0.13665728  0.53536947     0.09200
N2024       N  0.20681068  0.19284045  0.54607285     0.65500
H2025       H  0.19344550  0.21620623  0.51242943     0.18400
N2026       N  0.13870519  0.14295900  0.46555516     0.76000
H2027       H  0.15285988  0.11996401  0.49869225     0.09900
C2028       C  0.17080105  0.11213581  0.54651812     0.03600
C2029       C  0.18048854  0.09578078  0.55468308    -0.05100
C2030       C  0.20713361  0.10315942  0.55172070    -0.23500
C2031       C  0.22449882  0.12826508  0.54154717     0.12900
C2032       C  0.21479264  0.14449725  0.53346143    -0.12600
N2033       N  0.14338259  0.10334235  0.54936093     0.64600
H2034       H  0.16682369  0.07674402  0.56258649     0.12400
N2035       N  0.25207793  0.13763592  0.53899916     0.61200
H2036       H  0.22824799  0.16293940  0.52446047     0.08600
O2037       O  0.11414717  0.13238887  0.46873650    -0.40300
O2038       O  0.14739005  0.13661726  0.44701732    -0.39400
O2039       O  0.23123131  0.20649774  0.54198105    -0.39400
O2040       O  0.19755032  0.19637996  0.56579699    -0.37100
O2041       O  0.26763832  0.15285579  0.55517046    -0.38000
O2042       O  0.26114782  0.13624966  0.51829036    -0.34200
O2043       O  0.12705191  0.08559820  0.53529118    -0.35600
O2044       O  0.13531884  0.10811470  0.56922498    -0.39900
C2045       C  0.26879023  0.96845351  0.60547769    -0.13600
C2046       C  0.28925430  0.97194544  0.58954845     0.16800
C2047       C  0.29600611  0.98953771  0.56969973     0.03100
C2048       C  0.28288166  0.00371734  0.56641284    -0.12100
C2049       C  0.26287014  0.00103448  0.58264054    -0.03200
C2050       C  0.25544989  0.98265968  0.60213626     0.02300
C2051       C  0.30415591  0.95797639  0.59415087     0.09200
N2052       N  0.31709320  0.99423338  0.55335287     0.65500
H2053       H  0.28891237  0.01737674  0.55109093     0.18400
N2054       N  0.23480670  0.97838414  0.61886419     0.76000
H2055       H  0.26323942  0.95470068  0.62069041     0.09900
C2056       C  0.31937737  0.96304115  0.61552062     0.03600
C2057       C  0.33513508  0.95152584  0.61846551    -0.05100
C2058       C  0.33624889  0.93476442  0.60045373    -0.23500
C2059       C  0.31996692  0.92867188  0.57952316     0.12900
C2060       C  0.30427497  0.94045731  0.57649736    -0.12600
N2061       N  0.32010103  0.98092058  0.63386944     0.64600
H2062       H  0.34701370  0.95623950  0.63495362     0.12400
N2063       N  0.31958876  0.91124671  0.56088457     0.61200
H2064       H  0.29233246  0.93616348  0.56009218     0.08600
O2065       O  0.24053958  0.98901093  0.63983874    -0.40300
O2066       O  0.21177548  0.95973032  0.61492586    -0.39400
O2067       O  0.31190333  0.98451807  0.53199416    -0.39400
O2068       O  0.34011495  0.01241641  0.55816862    -0.37100
O2069       O  0.30187746  0.88731003  0.56145134    -0.38000
O2070       O  0.33258710  0.92070770  0.54132613    -0.34200
O2071       O  0.30795333  0.97198396  0.65391556    -0.35600
O2072       O  0.33701253  0.00506697  0.63221146    -0.39900
C2073       C  0.17914466  0.96891971  0.47977521    -0.13600
C2074       C  0.15265625  0.95301307  0.48672892     0.16800
C2075       C  0.14299886  0.96038848  0.50720221     0.03100
C2076       C  0.15982029  0.98301363  0.52048442    -0.12100
C2077       C  0.18681302  0.99809643  0.51476202    -0.03200
C2078       C  0.19633630  0.99122473  0.49365230     0.02300
C2079       C  0.13668306  0.92659060  0.47551004     0.09200
N2080       N  0.11714943  0.94336901  0.51670309     0.65500
H2081       H  0.15190124  0.98765969  0.53659506     0.18400
N2082       N  0.22365097  0.00504397  0.48727834     0.76000
H2083       H  0.18689871  0.96304094  0.46436243     0.09900
C2084       C  0.11377497  0.91955281  0.46171324     0.03600
C2085       C  0.09742879  0.89322501  0.45464076    -0.05100
C2086       C  0.10344531  0.87353671  0.46110200    -0.23500
C2087       C  0.12723596  0.88107761  0.47389768     0.12900
C2088       C  0.14341739  0.90732201  0.48093529    -0.12600
N2089       N  0.10699884  0.93889872  0.45448689     0.64600
H2090       H  0.07962546  0.88813481  0.44446461     0.12400
N2091       N  0.13531714  0.86243456  0.48014864     0.61200
H2092       H  0.16106288  0.91256212  0.49147011     0.08600
O2093       O  0.23132127  0.02086739  0.46937374    -0.40300
O2094       O  0.23848498  0.99686278  0.49537476    -0.39400
O2095       O  0.11353247  0.92474463  0.53082474    -0.39400
O2096       O  0.10028359  0.95081756  0.51629261    -0.37100
O2097       O  0.15164762  0.86027951  0.46650195    -0.38000
O2098       O  0.13106986  0.85294544  0.50160077    -0.34200
O2099       O  0.11526349  0.95044795  0.43410009    -0.35600
O2100       O  0.08787791  0.93930917  0.46486071    -0.39900
C2101       C  0.28695680  0.11125003  0.66832793    -0.13600
C2102       C  0.30004808  0.13834911  0.66320497     0.16800
C2103       C  0.30040211  0.14666648  0.63871308     0.03100
C2104       C  0.28840506  0.12803793  0.61998532    -0.12100
C2105       C  0.27524108  0.10101601  0.62514198    -0.03200
C2106       C  0.27431983  0.09261039  0.64966605     0.02300
C2107       C  0.31604336  0.15746744  0.68273357     0.09200
N2108       N  0.31220649  0.17399482  0.63265182     0.65500
H2109       H  0.28862561  0.13480764  0.60136149     0.18400
N2110       N  0.26176028  0.06523166  0.65573055     0.76000
H2111       H  0.28725519  0.10442415  0.68679488     0.09900
C2112       C  0.30572194  0.15825603  0.70608103     0.03600
C2113       C  0.32222656  0.17615022  0.72398022    -0.05100
C2114       C  0.34908826  0.19343361  0.71919730    -0.23500
C2115       C  0.35935234  0.19212786  0.69588139     0.12900
C2116       C  0.34289672  0.17424207  0.67820427    -0.12600
N2117       N  0.27851026  0.14138926  0.71182340     0.64600
H2118       H  0.31383123  0.17661821  0.74167559     0.12400
N2119       N  0.38661104  0.20824414  0.68986829     0.61200
H2120       H  0.35144289  0.17308755  0.66082030     0.08600
O2121       O  0.23923054  0.05427723  0.66560615    -0.40300
O2122       O  0.27523527  0.05380842  0.65624664    -0.39400
O2123       O  0.33354357  0.18490916  0.62067547    -0.39400
O2124       O  0.29842883  0.18507317  0.63381455    -0.37100
O2125       O  0.40200043  0.19918646  0.69280283    -0.38000
O2126       O  0.39380024  0.22838137  0.67659627    -0.34200
O2127       O  0.27189925  0.12177771  0.72568787    -0.35600
O2128       O  0.26247430  0.14954016  0.70825148    -0.39900
C2129       C  0.88082298  0.48055369  0.88528241    -0.13600
C2130       C  0.85661965  0.46868277  0.87292000     0.16800
C2131       C  0.84122578  0.44086846  0.87266532     0.03100
C2132       C  0.85083692  0.42561547  0.88350926    -0.12100
C2133       C  0.87588048  0.43754151  0.89414686    -0.03200
C2134       C  0.89061416  0.46526166  0.89571548     0.02300
C2135       C  0.85035587  0.48520751  0.85664468     0.09200
N2136       N  0.81651349  0.42781115  0.86019508     0.65500
H2137       H  0.83937895  0.40429524  0.88215384     0.18400
N2138       N  0.91588973  0.47816306  0.90717200     0.76000
H2139       H  0.89309983  0.50184505  0.88533212     0.09900
C2140       C  0.84859506  0.50705582  0.86532560     0.03600
C2141       C  0.84515223  0.52337753  0.84863068    -0.05100
C2142       C  0.84381274  0.51864754  0.82317487    -0.23500
C2143       C  0.84617080  0.49700901  0.81457044     0.12900
C2144       C  0.84923996  0.48063276  0.83127567    -0.12600
N2145       N  0.85031656  0.51299424  0.89097508     0.64600
H2146       H  0.84359080  0.53991629  0.85569963     0.12400
N2147       N  0.84719327  0.49223241  0.78889715     0.61200
H2148       H  0.85198660  0.46478922  0.82420026     0.08600
O2149       O  0.91794219  0.48663246  0.92888282    -0.40300
O2150       O  0.93633105  0.48615385  0.89410544    -0.39400
O2151       O  0.81502728  0.41715595  0.83960339    -0.39400
O2152       O  0.79565270  0.42161144  0.87205559    -0.37100
O2153       O  0.86916294  0.50297749  0.77796001    -0.38000
O2154       O  0.82749906  0.47335395  0.77870681    -0.34200
O2155       O  0.87136915  0.53179988  0.89939055    -0.35600
O2156       O  0.82943865  0.50413111  0.90352863    -0.39900
C2157       C  0.82020832  0.24612736  0.81352397    -0.13600
C2158       C  0.81241940  0.26519810  0.81350530     0.16800
C2159       C  0.78851950  0.25929635  0.80204775     0.03100
C2160       C  0.77209760  0.23400037  0.79223798    -0.12100
C2161       C  0.77904202  0.21421930  0.79375049    -0.03200
C2162       C  0.80401736  0.22097064  0.80367160     0.02300
C2163       C  0.82798943  0.28960247  0.82822320     0.09200
N2164       N  0.78016643  0.27843107  0.80114511     0.65500
H2165       H  0.75323093  0.22946152  0.78455148     0.18400
N2166       N  0.81331302  0.20252001  0.80399947     0.76000
H2167       H  0.83870548  0.25054165  0.82202298     0.09900
C2168       C  0.82394964  0.28907895  0.85376137     0.03600
C2169       C  0.84003214  0.31110989  0.86810652    -0.05100
C2170       C  0.86107391  0.33411241  0.85783885    -0.23500
C2171       C  0.86529630  0.33458218  0.83209981     0.12900
C2172       C  0.84862494  0.31247590  0.81754931    -0.12600
N2173       N  0.80430671  0.26570323  0.86564350     0.64600
H2174       H  0.83635241  0.30965912  0.88776447     0.12400
N2175       N  0.88665743  0.35689910  0.82049777     0.61200
H2176       H  0.85229595  0.31288193  0.79793888     0.08600
O2177       O  0.81256303  0.19099545  0.82384078    -0.40300
O2178       O  0.82763770  0.20257548  0.78655231    -0.39400
O2179       O  0.78363802  0.29148595  0.78167163    -0.39400
O2180       O  0.76485477  0.27842618  0.81755926    -0.37100
O2181       O  0.90809316  0.35713553  0.81688448    -0.38000
O2182       O  0.88234786  0.37327382  0.80934132    -0.34200
O2183       O  0.81082658  0.25025981  0.87547389    -0.35600
O2184       O  0.78217582  0.26337359  0.87065414    -0.39900
C2185       C  0.99150819  0.47184035  0.98747151    -0.13600
C2186       C  0.97689281  0.47781372  0.00421882     0.16800
C2187       C  0.94953715  0.46638834  0.00093028     0.03100
C2188       C  0.93723396  0.44896690  0.98136060    -0.12100
C2189       C  0.95175438  0.44296189  0.96444314    -0.03200
C2190       C  0.97923355  0.45465744  0.96761832     0.02300
C2191       C  0.99084037  0.49737391  0.02394135     0.09200
N2192       N  0.93416816  0.47315761  0.01665378     0.65500
H2193       H  0.91613701  0.44046270  0.97908477     0.18400
N2194       N  0.99479617  0.44863246  0.95142984     0.76000
H2195       H  0.01263598  0.48070893  0.98977912     0.09900
C2196       C  0.99226141  0.48970565  0.04820358     0.03600
C2197       C  0.00698853  0.50891251  0.06589534    -0.05100
C2198       C  0.02082361  0.53579627  0.05973846    -0.23500
C2199       C  0.01882924  0.54341478  0.03555985     0.12900
C2200       C  0.00388450  0.52422765  0.01797491    -0.12600
N2201       N  0.98003615  0.46249841  0.05481704     0.64600
H2202       H  0.00850295  0.50267200  0.08431099     0.12400
N2203       N  0.03129834  0.57056905  0.02872971     0.61200
H2204       H  0.00267256  0.53031722  0.99940955     0.08600
O2205       O  0.00736348  0.46427473  0.93411999    -0.40300
O2206       O  0.00042229  0.43120547  0.95752492    -0.39400
O2207       O  0.92902854  0.49074045  0.00989659    -0.39400
O2208       O  0.92103565  0.45785296  0.03397312    -0.37100
O2209       O  0.05277775  0.58070342  0.01699673    -0.38000
O2210       O  0.01827276  0.58245817  0.02955953    -0.34200
O2211       O  0.99356340  0.45112295  0.05471195    -0.35600
O2212       O  0.95819873  0.45190168  0.06596135    -0.39900
C2213       C  0.14822065  0.21509444  0.96771876    -0.13600
C2214       C  0.13861427  0.18796410  0.97000418     0.16800
C2215       C  0.11220150  0.17033205  0.96326357     0.03100
C2216       C  0.09568929  0.18015818  0.95607799    -0.12100
C2217       C  0.10498060  0.20734653  0.95556917    -0.03200
C2218       C  0.13185229  0.22485355  0.96039766     0.02300
C2219       C  0.15484341  0.17922482  0.98381782     0.09200
N2220       N  0.10161751  0.14245091  0.96438827     0.65500
H2221       H  0.07516585  0.16641628  0.95204843     0.18400
N2222       N  0.14295723  0.25267338  0.95777597     0.76000
H2223       H  0.16824688  0.22904215  0.97311834     0.09900
C2224       C  0.18160421  0.18835723  0.97806645     0.03600
C2225       C  0.19756005  0.18433264  0.99469021    -0.05100
C2226       C  0.18754386  0.17150805  0.01729309    -0.23500
C2227       C  0.16043802  0.16141386  0.02246011     0.12900
C2228       C  0.14459987  0.16543045  0.00585138    -0.12600
N2229       N  0.19305728  0.20227540  0.95570763     0.64600
H2230       H  0.21818826  0.19209914  0.99013958     0.12400
N2231       N  0.14866547  0.14771474  0.04481884     0.61200
H2232       H  0.12437229  0.15901127  0.01103844     0.08600
O2233       O  0.15603688  0.26368160  0.93861341    -0.40300
O2234       O  0.14557979  0.26650384  0.97653607    -0.39400
O2235       O  0.08523432  0.12937378  0.98107130    -0.39400
O2236       O  0.10341026  0.13056720  0.94572742    -0.37100
O2237       O  0.14602023  0.16011608  0.06261151    -0.38000
O2238       O  0.13580343  0.12285622  0.04478682    -0.34200
O2239       O  0.20896612  0.22675674  0.95645350    -0.35600
O2240       O  0.19248434  0.18947151  0.93679063    -0.39900
C2241       C  0.14544474  0.31754039  0.87392618    -0.13600
C2242       C  0.13781645  0.30760647  0.84998666     0.16800
C2243       C  0.11312862  0.28493047  0.84654360     0.03100
C2244       C  0.09655346  0.27284611  0.86672856    -0.12100
C2245       C  0.10403774  0.28251220  0.89086379    -0.03200
C2246       C  0.12898105  0.30523860  0.89430123     0.02300
C2247       C  0.15607362  0.32085918  0.82897400     0.09200
N2248       N  0.10446175  0.27396747  0.82260287     0.65500
H2249       H  0.07764157  0.25544298  0.86332289     0.18400
N2250       N  0.13844891  0.31556296  0.91826957     0.76000
H2251       H  0.16465686  0.33471137  0.87690516     0.09900
C2252       C  0.16477188  0.34745210  0.82337566     0.03600
C2253       C  0.18337330  0.36009536  0.80474286    -0.05100
C2254       C  0.19359293  0.34679763  0.79110528    -0.23500
C2255       C  0.18459655  0.32000473  0.79624703     0.12900
C2256       C  0.16597501  0.30729351  0.81513321    -0.12600
N2257       N  0.15457632  0.36182204  0.83620452     0.64600
H2258       H  0.18982121  0.38061230  0.80078330     0.12400
N2259       N  0.19555034  0.30607102  0.78386871     0.61200
H2260       H  0.15988119  0.28697081  0.81956952     0.08600
O2261       O  0.13668326  0.33503556  0.92584080    -0.40300
O2262       O  0.15407985  0.30982029  0.92885048    -0.39400
O2263       O  0.10533638  0.25358586  0.81648325    -0.39400
O2264       O  0.09074752  0.28083952  0.81012756    -0.37100
O2265       O  0.21582518  0.30670281  0.79254955    -0.38000
O2266       O  0.18189635  0.28870225  0.76819458    -0.34200
O2267       O  0.16872082  0.37879355  0.85198272    -0.35600
O2268       O  0.13455203  0.36196944  0.82788696    -0.39900
C2269       C  0.98622917  0.29436270  0.95481111    -0.13600
C2270       C  0.97303040  0.29135224  0.93257544     0.16800
C2271       C  0.97518820  0.27565045  0.91388279     0.03100
C2272       C  0.99064728  0.26378767  0.91765579    -0.12100
C2273       C  0.00460750  0.26756421  0.93963009    -0.03200
C2274       C  0.00186806  0.28276333  0.95854377     0.02300
C2275       C  0.96020755  0.30751698  0.92825357     0.09200
N2276       N  0.96226810  0.27196025  0.89075828     0.65500
H2277       H  0.99237337  0.25220477  0.90290497     0.18400
N2278       N  0.01506053  0.28707567  0.98159354     0.76000
H2279       H  0.98553039  0.30698463  0.96908266     0.09900
C2280       C  0.94155959  0.30770854  0.94476467     0.03600
C2281       C  0.93183851  0.32502751  0.94089397    -0.05100
C2282       C  0.94048710  0.34264011  0.92093583    -0.23500
C2283       C  0.95933340  0.34249275  0.90456060     0.12900
C2284       C  0.96897297  0.32520146  0.90847086    -0.12600
N2285       N  0.93224629  0.29048840  0.96556029     0.64600
H2286       H  0.91748500  0.32473104  0.95378444     0.12400
N2287       N  0.96904659  0.35972642  0.88380531     0.61200
H2288       H  0.98411127  0.32619443  0.89620558     0.08600
O2289       O  0.00169311  0.27597639  0.00059399    -0.40300
O2290       O  0.03764622  0.30698971  0.98405688    -0.39400
O2291       O  0.97570915  0.28391157  0.87202876    -0.39400
O2292       O  0.93954070  0.25237756  0.88790501    -0.37100
O2293       O  0.95905250  0.35128246  0.86291261    -0.38000
O2294       O  0.99081568  0.38085717  0.88533621    -0.34200
O2295       O  0.94054830  0.29976026  0.98671516    -0.35600
O2296       O  0.91144637  0.26849337  0.96361482    -0.39900
C2297       C  0.96696955  0.17093992  0.02835985    -0.13600
C2298       C  0.96118312  0.14463222  0.02670687     0.16800
C2299       C  0.97771397  0.13877235  0.01220655     0.03100
C2300       C  0.99842154  0.15877965  0.99866551    -0.12100
C2301       C  0.00339710  0.18485305  0.99943966    -0.03200
C2302       C  0.98785641  0.19099396  0.01497664     0.02300
C2303       C  0.93529106  0.12349368  0.03616039     0.09200
N2304       N  0.97335809  0.11250555  0.01057504     0.65500
H2305       H  0.01022667  0.15373328  0.98679662     0.18400
N2306       N  0.99070568  0.21666554  0.01489647     0.76000
H2307       H  0.95393285  0.17570581  0.03860422     0.09900
C2308       C  0.92726559  0.12257766  0.06089729     0.03600
C2309       C  0.90111290  0.10499280  0.06788915    -0.05100
C2310       C  0.88254217  0.08870039  0.05047051    -0.23500
C2311       C  0.89072535  0.08899734  0.02596018     0.12900
C2312       C  0.91686298  0.10616836  0.01909690    -0.12600
N2313       N  0.94517045  0.13992514  0.07895111     0.64600
H2314       H  0.89497873  0.10506907  0.08674265     0.12400
N2315       N  0.87252157  0.07237452  0.00766602     0.61200
H2316       H  0.92241447  0.10695251  0.99991482     0.08600
O2317       O  0.00291075  0.23231377  0.03226421    -0.40300
O2318       O  0.97559094  0.22089003  0.00156289    -0.39400
O2319       O  0.96384424  0.09942518  0.99111563    -0.39400
O2320       O  0.98477414  0.10513509  0.02560470    -0.37100
O2321       O  0.86279941  0.08186102  0.99293040    -0.38000
O2322       O  0.87074981  0.05042455  0.00289074    -0.34200
O2323       O  0.94375939  0.15989745  0.08553018    -0.35600
O2324       O  0.95741293  0.13198274  0.09229197    -0.39900
C2325       C  0.46907960  0.12522741  0.36267089    -0.13600
C2326       C  0.48778427  0.12036056  0.35123085     0.16800
C2327       C  0.48979822  0.12125644  0.32546214     0.03100
C2328       C  0.47293592  0.12641933  0.31153363    -0.12100
C2329       C  0.45350536  0.13056308  0.32264766    -0.03200
C2330       C  0.45196978  0.13036563  0.34863760     0.02300
C2331       C  0.50253386  0.11069263  0.36577498     0.09200
N2332       N  0.50802984  0.11561982  0.31306582     0.65500
H2333       H  0.47465422  0.12628667  0.29167069     0.18400
N2334       N  0.43330028  0.13527870  0.36108255     0.76000
H2335       H  0.46727914  0.12431066  0.38255635     0.09900
C2336       C  0.52798932  0.12768892  0.37486555     0.03600
C2337       C  0.54239829  0.11713208  0.38583153    -0.05100
C2338       C  0.53195438  0.08975011  0.38741218    -0.23500
C2339       C  0.50591961  0.07285618  0.37924328     0.12900
C2340       C  0.49152946  0.08346138  0.36860144    -0.12600
N2341       N  0.53990737  0.15556972  0.37201642     0.64600
H2342       H  0.56240574  0.13038118  0.39179385     0.12400
N2343       N  0.49383807  0.04486120  0.38142878     0.61200
H2344       H  0.47187438  0.07027448  0.36173018     0.08600
O2345       O  0.44050621  0.15811150  0.36914323    -0.40300
O2346       O  0.41203327  0.11608996  0.36877659    -0.39400
O2347       O  0.50006472  0.09282311  0.30451110    -0.39400
O2348       O  0.52978794  0.13442078  0.30580169    -0.37100
O2349       O  0.47974647  0.03358117  0.40002916    -0.38000
O2350       O  0.49209533  0.03132632  0.36268341    -0.34200
O2351       O  0.54005701  0.16936677  0.38995170    -0.35600
O2352       O  0.55488725  0.16665329  0.35386826    -0.39900
C2353       C  0.66504193  0.11867807  0.31672655    -0.13600
C2354       C  0.68203629  0.14443065  0.32505768     0.16800
C2355       C  0.67493858  0.15347029  0.34619085     0.03100
C2356       C  0.65206874  0.13644988  0.35920016    -0.12100
C2357       C  0.63585249  0.11004832  0.35197194    -0.03200
C2358       C  0.64208954  0.10148236  0.32987674     0.02300
C2359       C  0.70756469  0.16124577  0.31224102     0.09200
N2360       N  0.69171844  0.17927692  0.35579187     0.65500
H2361       H  0.64769971  0.14380510  0.37586593     0.18400
N2362       N  0.62607942  0.07524305  0.32097095     0.76000
H2363       H  0.66994784  0.11166197  0.30014165     0.09900
C2364       C  0.72656552  0.15321702  0.31017349     0.03600
C2365       C  0.75104231  0.16998285  0.29939415    -0.05100
C2366       C  0.75737694  0.19500117  0.29049628    -0.23500
C2367       C  0.73807936  0.20278289  0.29189939     0.12900
C2368       C  0.71345775  0.18590985  0.30272401    -0.12600
N2369       N  0.72189784  0.12869046  0.32020434     0.64600
H2370       H  0.76553213  0.16356495  0.29857219     0.12400
N2371       N  0.74370400  0.22836018  0.28410870     0.61200
H2372       H  0.69899754  0.19232371  0.30410591     0.08600
O2373       O  0.63335386  0.05847826  0.32436149    -0.40300
O2374       O  0.60879322  0.07080859  0.30497822    -0.39400
O2375       O  0.68501755  0.19662916  0.35370918    -0.39400
O2376       O  0.70939518  0.18274314  0.37099354    -0.37100
O2377       O  0.73647031  0.23114931  0.26303501    -0.38000
O2378       O  0.74953788  0.24611254  0.30003965    -0.34200
O2379       O  0.71714068  0.10982257  0.30590738    -0.35600
O2380       O  0.72813402  0.12778919  0.34222504    -0.39900
C2381       C  0.52174725  0.00278931  0.50277472    -0.13600
C2382       C  0.49480000  0.98764462  0.49774667     0.16800
C2383       C  0.48617414  0.98533814  0.47317791     0.03100
C2384       C  0.50450109  0.99845248  0.45426191    -0.12100
C2385       C  0.53141277  0.01440919  0.45938201    -0.03200
C2386       C  0.54002999  0.01614056  0.48395878     0.02300
C2387       C  0.47612620  0.97515744  0.51856133     0.09200
N2388       N  0.45877040  0.97137042  0.46733507     0.65500
H2389       H  0.49743914  0.99721233  0.43561611     0.18400
N2390       N  0.56732229  0.03101692  0.49011758     0.76000
H2391       H  0.52863096  0.00443610  0.52154531     0.09900
C2392       C  0.46274209  0.94769990  0.52211804     0.03600
C2393       C  0.44531551  0.93666416  0.54190240    -0.05100
C2394       C  0.44126719  0.95240255  0.55903092    -0.23500
C2395       C  0.45555737  0.98005005  0.55607771     0.12900
C2396       C  0.47259498  0.99111749  0.53579086    -0.12600
N2397       N  0.46786430  0.93083930  0.50681225     0.64600
H2398       H  0.43537046  0.91544174  0.54422985     0.12400
N2399       N  0.45273979  0.99712802  0.57309345     0.61200
H2400       H  0.48321195  0.01234863  0.53348046     0.08600
O2401       O  0.58071230  0.01952433  0.49114430    -0.40300
O2402       O  0.57621465  0.05346265  0.49981590    -0.39400
O2403       O  0.44596585  0.98349109  0.46792070    -0.39400
O2404       O  0.44944412  0.94987997  0.45575492    -0.37100
O2405       O  0.46962185  0.00803118  0.58985691    -0.38000
O2406       O  0.43768424  0.00608110  0.56786646    -0.34200
O2407       O  0.48616953  0.92643743  0.51268055    -0.35600
O2408       O  0.45021017  0.91517011  0.49231271    -0.39900
C2409       C  0.75199484  0.82014046  0.47079302    -0.13600
C2410       C  0.77865506  0.83110180  0.47663471     0.16800
C2411       C  0.79647270  0.85745778  0.47027977     0.03100
C2412       C  0.78710639  0.87284094  0.45930059    -0.12100
C2413       C  0.76008279  0.86242350  0.45518555    -0.03200
C2414       C  0.74254384  0.83555619  0.46023693     0.02300
C2415       C  0.78650986  0.81550832  0.49202841     0.09200
N2416       N  0.82378953  0.86924434  0.47613407     0.65500
H2417       H  0.80075148  0.89350241  0.45565558     0.18400
N2418       N  0.71499758  0.82383330  0.45534814     0.76000
H2419       H  0.73823037  0.79980804  0.47558065     0.09900
C2420       C  0.78575473  0.81717647  0.51776024     0.03600
C2421       C  0.79028181  0.80030042  0.53234726    -0.05100
C2422       C  0.79479779  0.78086502  0.52188693    -0.23500
C2423       C  0.79536073  0.77908730  0.49594049     0.12900
C2424       C  0.79144379  0.79658585  0.48126653    -0.12600
N2425       N  0.77843371  0.83457803  0.52934824     0.64600
H2426       H  0.78906959  0.80179037  0.55214742     0.12400
N2427       N  0.79934592  0.75948489  0.48417008     0.61200
H2428       H  0.79138991  0.79484302  0.46139451     0.08600
O2429       O  0.70609754  0.81226103  0.43510362    -0.40300
O2430       O  0.69924967  0.81997614  0.47285737    -0.39400
O2431       O  0.84001617  0.87205258  0.45942601    -0.39400
O2432       O  0.83214309  0.88194358  0.49595346    -0.37100
O2433       O  0.77959513  0.73815841  0.47748002    -0.38000
O2434       O  0.82171215  0.76586917  0.47534354    -0.34200
O2435       O  0.75463906  0.82604793  0.53513270    -0.35600
O2436       O  0.79600436  0.85580596  0.53872265    -0.39900
C2437       C  0.67214565  0.03201521  0.42499014    -0.13600
C2438       C  0.66176664  0.00569924  0.41769594     0.16800
C2439       C  0.63569182  0.99148333  0.40929452     0.03100
C2440       C  0.62050872  0.00374378  0.40803088    -0.12100
C2441       C  0.63066064  0.03016140  0.41522015    -0.03200
C2442       C  0.65684301  0.04436548  0.42388355     0.02300
C2443       C  0.67694854  0.99222476  0.42217692     0.09200
N2444       N  0.62404902  0.96429391  0.40274018     0.65500
H2445       H  0.60039051  0.99223981  0.40158149     0.18400
N2446       N  0.66830929  0.07125669  0.43135322     0.76000
H2447       H  0.69209277  0.04286155  0.43200011     0.09900
C2448       C  0.69281952  0.98988549  0.40393964     0.03600
C2449       C  0.70595828  0.97588472  0.40903754    -0.05100
C2450       C  0.70323135  0.96387545  0.43205964    -0.23500
C2451       C  0.68779716  0.96699937  0.45046764     0.12900
C2452       C  0.67485719  0.98103788  0.44532356    -0.12600
N2453       N  0.69536717  0.00116736  0.38010754     0.64600
H2454       H  0.71758467  0.97363904  0.39463480     0.12400
N2455       N  0.68528280  0.95636994  0.47461874     0.61200
H2456       H  0.66282896  0.98303249  0.45948886     0.08600
O2457       O  0.68284118  0.08925660  0.41648393    -0.40300
O2458       O  0.66895753  0.07660738  0.45392663    -0.39400
O2459       O  0.60952078  0.94692237  0.41811791    -0.39400
O2460       O  0.62310514  0.95806441  0.38038308    -0.37100
O2461       O  0.70069902  0.97068212  0.49131915    -0.38000
O2462       O  0.66453543  0.93544621  0.48043383    -0.34200
O2463       O  0.71548532  0.02297127  0.37512121    -0.35600
O2464       O  0.68082159  0.98702835  0.36285630    -0.39900
C2465       C  0.82660228  0.99578760  0.51006868    -0.13600
C2466       C  0.81597094  0.00703528  0.52592685     0.16800
C2467       C  0.78840815  0.99533649  0.52805361     0.03100
C2468       C  0.77199292  0.97351641  0.51344575    -0.12100
C2469       C  0.78264031  0.96361246  0.49605120    -0.03200
C2470       C  0.81027158  0.97437461  0.49503554     0.02300
C2471       C  0.83349628  0.03414259  0.53485862     0.09200
N2472       N  0.77688995  0.00707602  0.54300563     0.65500
H2473       H  0.75086866  0.96571756  0.51427231     0.18400
N2474       N  0.82212418  0.96448189  0.47820640     0.76000
H2475       H  0.84781171  0.00487614  0.50808488     0.09900
C2476       C  0.84429619  0.04000443  0.55869206     0.03600
C2477       C  0.86117518  0.06638679  0.56550209    -0.05100
C2478       C  0.86740471  0.08706112  0.54882273    -0.23500
C2479       C  0.85699558  0.08080207  0.52472991     0.12900
C2480       C  0.84015280  0.05463890  0.51813941    -0.12600
N2481       N  0.83845103  0.01949726  0.57604162     0.64600
H2482       H  0.86907945  0.07071686  0.58400386     0.12400
N2483       N  0.86412641  0.10065779  0.50632454     0.61200
H2484       H  0.83236159  0.05021112  0.49958054     0.08600
O2485       O  0.82763280  0.94730594  0.48545233    -0.40300
O2486       O  0.83246379  0.97700780  0.45862417    -0.39400
O2487       O  0.77111730  0.02321022  0.53348085    -0.39400
O2488       O  0.76754136  0.99730938  0.56381003    -0.37100
O2489       O  0.88392766  0.10674876  0.49281263    -0.38000
O2490       O  0.84794450  0.10798959  0.50035608    -0.34200
O2491       O  0.85496487  0.01192702  0.57950834    -0.35600
O2492       O  0.82010288  0.01334517  0.59143345    -0.39900
C2493       C  0.64565513  0.83353137  0.36678295    -0.13600
C2494       C  0.65965112  0.82848710  0.34847832     0.16800
C2495       C  0.68740838  0.84193345  0.34951942     0.03100
C2496       C  0.70044929  0.85967384  0.36859148    -0.12100
C2497       C  0.68653951  0.86435640  0.38717415    -0.03200
C2498       C  0.65878084  0.85109852  0.38615108     0.02300
C2499       C  0.64519042  0.80989270  0.32805451     0.09200
N2500       N  0.70271103  0.83720795  0.33180468     0.65500
H2501       H  0.72178977  0.86940585  0.36915279     0.18400
N2502       N  0.64371589  0.85612887  0.40387037     0.76000
H2503       H  0.62437027  0.82413265  0.36581172     0.09900
C2504       C  0.62447367  0.78409877  0.33267038     0.03600
C2505       C  0.61113684  0.76728129  0.31304261    -0.05100
C2506       C  0.61807967  0.77531960  0.28848715    -0.23500
C2507       C  0.63886212  0.80118774  0.28383385     0.12900
C2508       C  0.65189864  0.81818805  0.30354174    -0.12600
N2509       N  0.61721351  0.77431426  0.35719284     0.64600
H2510       H  0.59540936  0.74750000  0.31718858     0.12400
N2511       N  0.64658838  0.81085281  0.25933448     0.61200
H2512       H  0.66720739  0.83821106  0.29959807     0.08600
O2513       O  0.63146472  0.83939266  0.42052619    -0.40300
O2514       O  0.63813091  0.87401831  0.39975431    -0.39400
O2515       O  0.71590372  0.85467056  0.31598021    -0.39400
O2516       O  0.70790463  0.81899731  0.33559274    -0.37100
O2517       O  0.63683264  0.82350069  0.24933215    -0.38000
O2518       O  0.66713368  0.81222929  0.25028380    -0.34200
O2519       O  0.59593860  0.77122978  0.36617968    -0.35600
O2520       O  0.62847470  0.76317479  0.36730297    -0.39900
loop_ 
_geom_bond_atom_site_label_1 
_geom_bond_atom_site_label_2 
_geom_bond_distance 
_geom_bond_site_symmetry_2 
_ccdc_geom_bond_type 
O1           Cu9   1.984       .  S
O1           C11   1.274       .  A
O2           Cu9   1.980       .  S
O2           C12   1.273       .  A
O3           Cu9   2.031       .  S
O3           C13   1.280       .  A
O4           Cu9   2.034       .  S
O4           C14   1.282       .  A
O5          Cu10   1.997       .  S
O5           C14   1.275       .  A
O6          Cu10   1.991       .  S
O6           C13   1.276       .  A
O7          Cu10   2.030       .  S
O7           C12   1.281       .  A
O8          Cu10   2.019       .  S
O8           C11   1.279       .  A
Cu9         Cu10   2.372       .  S
C11        C2413   1.471       .  S
C12        C2450   1.481       .  S
C13        C2497   1.482       .  S
C14        C2469   1.481       .  S
O15         Cu23   1.974       .  S
O15          C25   1.274       .  A
O16         Cu23   1.982       .  S
O16          C26   1.273       .  A
O17         Cu23   2.049       .  S
O17          C27   1.282       .  A
O18         Cu23   2.039       .  S
O18          C28   1.283       .  A
O19         Cu24   1.998       .  S
O19          C28   1.275       .  A
O20         Cu24   1.983       .  S
O20          C27   1.276       .  A
O21         Cu24   2.039       .  S
O21          C26   1.283       .  A
O22         Cu24   2.036       .  S
O22          C25   1.281       .  A
Cu23        Cu24   2.368       .  S
C25        C2441   1.483       .  S
C26        C2338   1.480       .  S
C27        C2357   1.493       .  S
C28        C2385   1.486       .  S
O29         Cu37   2.049       .  S
O29          C39   1.283       .  A
O30         Cu37   2.051       .  S
O30          C40   1.283       .  A
O31         Cu37   1.995       .  S
O31          C41   1.276       .  A
O32         Cu37   1.996       .  S
O32          C42   1.275       .  A
O33         Cu38   2.032       .  S
O33          C42   1.282       .  A
O34         Cu38   2.027       .  S
O34          C41   1.280       .  A
O35         Cu38   1.989       .  S
O35          C40   1.274       .  A
O36         Cu38   1.988       .  S
O36          C39   1.276       .  A
Cu37        Cu38   2.368       .  S
C39        C2245   1.496       .  S
C40        C2301   1.481       .  S
C41        C2217   1.479       .  S
C42        C2273   1.488       .  S
O43         Cu51   2.063       .  S
O43          C53   1.284       .  A
O44         Cu51   2.049       .  S
O44          C54   1.283       .  A
O45         Cu51   1.995       .  S
O45          C55   1.275       .  A
O46         Cu51   2.004       .  S
O46          C56   1.276       .  A
O47         Cu52   2.024       .  S
O47          C56   1.279       .  A
O48         Cu52   2.026       .  S
O48          C55   1.281       .  A
O49         Cu52   1.990       .  S
O49          C54   1.275       .  A
O50         Cu52   1.985       .  S
O50          C53   1.276       .  A
Cu51        Cu52   2.367       .  S
C53        C2170   1.501       .  S
C54        C2189   1.486       .  S
C55        C2282   1.490       .  S
C56        C2133   1.474       .  S
O57         Cu65   2.034       .  S
O57          C67   1.283       .  A
O58         Cu65   2.046       .  S
O58          C68   1.282       .  A
O59         Cu65   1.989       .  S
O59          C69   1.274       .  A
O60         Cu65   1.982       .  S
O60          C70   1.276       .  A
O61         Cu66   2.042       .  S
O61          C70   1.281       .  A
O62         Cu66   2.046       .  S
O62          C69   1.284       .  A
O63         Cu66   1.984       .  S
O63          C68   1.276       .  A
O64         Cu66   1.988       .  S
O64          C67   1.273       .  A
Cu65        Cu66   2.367       .  S
C67        C2105   1.478       .  S
C68        C2077   1.492   1_545  S
C69        C2030   1.490       .  S
C70        C2049   1.491       .  S
O71         Cu79   2.042       .  S
O71          C81   1.281       .  A
O72         Cu79   2.030       .  S
O72          C82   1.282       .  A
O73         Cu79   1.983       .  S
O73          C83   1.273       .  A
O74         Cu79   1.981       .  S
O74          C84   1.275       .  A
O75         Cu80   2.052       .  S
O75          C84   1.283       .  A
O76         Cu80   2.047       .  S
O76          C83   1.284       .  A
O77         Cu80   1.986       .  S
O77          C82   1.273       .  A
O78         Cu80   1.983       .  S
O78          C81   1.276       .  A
Cu79        Cu80   2.365       .  S
C81        C2058   1.489       .  S
C82        C1974   1.489       .  S
C83        C2002   1.488       .  S
C84        C2394   1.488       .  S
O85         Cu93   1.989       .  S
O85          C95   1.274       .  A
O86         Cu93   1.981       .  S
O86          C96   1.273       .  A
O87         Cu93   2.042       .  S
O87          C97   1.284       .  A
O88         Cu93   2.052       .  S
O88          C98   1.283       .  A
O89         Cu94   1.968       .  S
O89          C98   1.273       .  A
O90         Cu94   1.972       .  S
O90          C97   1.271       .  A
O91         Cu94   2.032       .  S
O91          C96   1.283       .  A
O92         Cu94   2.034       .  S
O92          C95   1.282       .  A
Cu93        Cu94   2.364       .  S
C95        C2114   1.491       .  S
C96        C1937   1.489       .  S
C97        C1881   1.489       .  S
C98        C1909   1.486       .  S
O99        Cu107   1.977       .  S
O99         C109   1.275       .  A
O100       Cu107   1.979       .  S
O100        C110   1.273       .  A
O101       Cu107   2.043       .  S
O101        C111   1.281       .  A
O102       Cu107   2.032       .  S
O102        C112   1.282       .  A
O103       Cu108   1.999       .  S
O103        C112   1.276       .  A
O104       Cu108   1.994       .  S
O104        C111   1.276       .  A
O105       Cu108   2.040       .  S
O105        C110   1.283       .  A
O106       Cu108   2.032       .  S
O106        C109   1.280       .  A
Cu107      Cu108   2.372       .  S
C109       C1825   1.474       .  S
C110       C1918   1.481       .  S
C111       C2254   1.480       .  S
C112       C1853   1.485       .  S
O113       Cu121   2.036       .  S
O113        C123   1.281       .  A
O114       Cu121   2.038       .  S
O114        C124   1.281       .  A
O115       Cu121   1.975       .  S
O115        C125   1.275       .  A
O116       Cu121   1.988       .  S
O116        C126   1.274       .  A
O117       Cu122   2.036       .  S
O117        C126   1.281       .  A
O118       Cu122   2.038       .  S
O118        C125   1.281       .  A
O119       Cu122   1.993       .  S
O119        C124   1.277       .  A
O120       Cu122   1.989       .  S
O120        C123   1.274       .  A
Cu121      Cu122   2.371       .  S
C123       C1750   1.474       .  S
C124       C1806   1.492       .  S
C125       C1722   1.485       .  S
C126       C1778   1.471       .  S
O127       Cu135   2.036       .  S
O127        C137   1.281       .  A
O128       Cu135   2.032       .  S
O128        C138   1.280       .  A
O129       Cu135   1.989       .  S
O129        C139   1.276       .  A
O130       Cu135   1.999       .  S
O130        C140   1.278       .  A
O131       Cu136   2.026       .  S
O131        C140   1.279       .  A
O132       Cu136   2.028       .  S
O132        C139   1.279       .  A
O133       Cu136   1.986       .  S
O133        C138   1.277       .  A
O134       Cu136   1.989       .  S
O134        C137   1.276       .  A
Cu135      Cu136   2.369       .  S
C137       C1769   1.483       .  S
C138       C1657   1.484       .  S
C139       C1685   1.479       .  S
C140       C2506   1.488       .  S
O141       Cu149   2.016       .  S
O141        C151   1.278       .  A
O142       Cu149   2.014       .  S
O142        C152   1.278       .  A
O143       Cu149   2.048       .  S
O143        C153   1.282       .  A
O144       Cu149   2.044       .  S
O144        C154   1.282       .  A
O145       Cu150   1.975       .  S
O145        C154   1.274       .  A
O146       Cu150   1.969       .  S
O146        C153   1.274       .  A
O147       Cu150   2.022       .  S
O147        C152   1.280       .  A
O148       Cu150   2.021       .  S
O148        C151   1.279       .  A
Cu149      Cu150   2.366       .  S
C151       C2198   1.483       .  S
C152       C1629   1.493       .  S
C153       C1573   1.490       .  S
C154       C1601   1.485       .  S
O155       Cu163   1.974       .  S
O155        C165   1.274       .  A
O156       Cu163   1.971       .  S
O156        C166   1.274       .  A
O157       Cu163   2.027       .  S
O157        C167   1.280       .  A
O158       Cu163   2.031       .  S
O158        C168   1.281       .  A
O159       Cu164   1.989       .  S
O159        C168   1.275       .  A
O160       Cu164   1.984       .  S
O160        C167   1.274       .  A
O161       Cu164   2.037       .  S
O161        C166   1.282       .  A
O162       Cu164   2.053       .  S
O162        C165   1.283       .  A
Cu163      Cu164   2.367       .  S
C165       C1741   1.494       .  S
C166       C1554   1.487       .  S
C167       C1517   1.480       .  S
C168       C1610   1.478       .  S
O169       Cu177   1.985       .  S
O169        C179   1.277       .  A
O170       Cu177   1.985       .  S
O170        C180   1.275       .  A
O171       Cu177   2.047       .  S
O171        C181   1.282       .  A
O172       Cu177   2.043       .  S
O172        C182   1.281       .  A
O173       Cu178   1.980       .  S
O173        C182   1.276       .  A
O174       Cu178   1.992       .  S
O174        C181   1.277       .  A
O175       Cu178   2.026       .  S
O175        C180   1.280       .  A
O176       Cu178   2.031       .  S
O176        C179   1.280       .  A
Cu177      Cu178   2.366       .  S
C179       C1666   1.487       .  S
C180       C1470   1.475       .  S
C181       C1489   1.497       .  S
C182       C1433   1.491       .  S
O183       Cu191   1.998       .  S
O183        C193   1.275       .  A
O184       Cu191   1.992       .  S
O184        C194   1.274       .  A
O185       Cu191   2.025       .  S
O185        C195   1.281       .  A
O186       Cu191   2.043       .  S
O186        C196   1.283       .  A
O187       Cu192   2.013       .  S
O187        C196   1.276       .  A
O188       Cu192   2.004       .  S
O188        C195   1.276       .  A
O189       Cu192   2.038       .  S
O189        C194   1.281       .  A
O190       Cu192   2.034       .  S
O190        C193   1.282       .  A
Cu191      Cu192   2.368       .  S
C193       C1498   1.490       .  S
C194       C2310   1.476       .  S
C195       C1405   1.487   1_545  S
C196       C1386   1.490       .  S
O197       Cu205   2.046       .  S
O197        C207   1.282       .  A
O198       Cu205   2.050       .  S
O198        C208   1.283       .  A
O199       Cu205   2.003       .  S
O199        C209   1.278       .  A
O200       Cu205   1.999       .  S
O200        C210   1.275       .  A
O201       Cu206   2.037       .  S
O201        C210   1.283       .  A
O202       Cu206   2.046       .  S
O202        C209   1.281       .  A
O203       Cu206   1.987       .  S
O203        C208   1.276       .  A
O204       Cu206   1.991       .  S
O204        C207   1.276       .  A
Cu205      Cu206   2.365       .  S
C207       C2366   1.487       .  S
C208       C1321   1.491       .  S
C209       C1377   1.497       .  S
C210       C1349   1.491       .  S
O211       Cu219   2.014       .  S
O211        C221   1.279       .  A
O212       Cu219   2.016       .  S
O212        C222   1.280       .  A
O213       Cu219   1.975       .  S
O213        C223   1.274       .  A
O214       Cu219   1.972       .  S
O214        C224   1.274       .  A
O215       Cu220   2.056       .  S
O215        C224   1.283       .  A
O216       Cu220   2.064       .  S
O216        C223   1.285       .  A
O217       Cu220   2.009       .  S
O217        C222   1.277       .  A
O218       Cu220   1.994       .  S
O218        C221   1.275       .  A
Cu219      Cu220   2.366       .  S
C221       C1582   1.474       .  S
C222       C1293   1.490       .  S
C223       C1330   1.496       .  S
C224       C1265   1.489       .  S
O225       Cu233   1.985       .  S
O225        C235   1.274       .  A
O226       Cu233   1.992       .  S
O226        C236   1.274       .  A
O227       Cu233   2.026       .  S
O227        C237   1.281       .  A
O228       Cu233   2.031       .  S
O228        C238   1.282       .  A
O229       Cu234   2.004       .  S
O229        C238   1.276       .  A
O230       Cu234   2.002       .  S
O230        C237   1.276       .  A
O231       Cu234   2.041       .  S
O231        C236   1.283       .  A
O232       Cu234   2.020       .  S
O232        C235   1.280       .  A
Cu233      Cu234   2.370       .  S
C235       C1209   1.471       .  S
C236       C1246   1.486       .  S
C237       C1302   1.479       .  S
C238       C2021   1.489       .  S
O239       Cu247   1.988       .  S
O239        C249   1.274       .  A
O240       Cu247   1.989       .  S
O240        C250   1.276       .  A
O241       Cu247   2.040       .  S
O241        C251   1.282       .  A
O242       Cu247   2.043       .  S
O242        C252   1.282       .  A
O243       Cu248   1.978       .  S
O243        C252   1.275       .  A
O244       Cu248   1.993       .  S
O244        C251   1.274       .  A
O245       Cu248   2.044       .  S
O245        C250   1.282       .  A
O246       Cu248   2.042       .  S
O246        C249   1.283       .  A
Cu247      Cu248   2.366       .  S
C249       C1797   1.487       .  S
C250       C1237   1.494       .  S
C251       C1162   1.484       .  S
C252       C1190   1.489       .  S
O253       Cu261   2.039       .  S
O253        C263   1.282       .  A
O254       Cu261   2.051       .  S
O254        C264   1.283       .  A
O255       Cu261   1.981       .  S
O255        C265   1.275       .  A
O256       Cu261   1.990       .  S
O256        C266   1.274       .  A
O257       Cu262   2.041       .  S
O257        C266   1.282       .  A
O258       Cu262   2.055       .  S
O258        C265   1.283       .  A
O259       Cu262   1.984       .  S
O259        C264   1.275       .  A
O260       Cu262   1.986       .  S
O260        C263   1.274       .  A
Cu261      Cu262   2.369       .  S
C263       C1125   1.480       .  S
C264       C1153   1.488       .  S
C265       C1097   1.488       .  S
C266       C1862   1.483       .  S
O267       Cu275   2.035       .  S
O267        C277   1.280       .  A
O268       Cu275   2.036       .  S
O268        C278   1.281       .  A
O269       Cu275   1.990       .  S
O269        C279   1.276       .  A
O270       Cu275   1.982       .  S
O270        C280   1.276       .  A
O271       Cu276   2.049       .  S
O271        C280   1.282       .  A
O272       Cu276   2.052       .  S
O272        C279   1.283       .  A
O273       Cu276   1.985       .  S
O273        C278   1.276       .  A
O274       Cu276   1.978       .  S
O274        C277   1.275       .  A
Cu275      Cu276   2.365       .  S
C277       C2422   1.485       .  S
C278       C1069   1.488       .  S
C279       C1106   1.497       .  S
C280       C1041   1.489       .  S
O281       Cu289   1.985       .  S
O281        C291   1.274       .  A
O282       Cu289   1.989       .  S
O282        C292   1.276       .  A
O283       Cu289   2.058       .  S
O283        C293   1.284       .  A
O284       Cu289   2.058       .  S
O284        C294   1.284       .  A
O285       Cu290   1.986       .  S
O285        C294   1.275       .  A
O286       Cu290   1.978       .  S
O286        C293   1.274       .  A
O287       Cu290   2.038       .  S
O287        C292   1.281       .  A
O288       Cu290   2.034       .  S
O288        C291   1.282       .  A
Cu289      Cu290   2.365       .  S
C291       C2142   1.488       .  S
C292       C1078   1.482       .  S
C293       C1013   1.497       .  S
C294        C985   1.497       .  S
O295       Cu303   1.990       .  S
O295        C305   1.273       .  A
O296       Cu303   1.993       .  S
O296        C306   1.276       .  A
O297       Cu303   2.053       .  S
O297        C307   1.283       .  A
O298       Cu303   2.055       .  S
O298        C308   1.286       .  A
O299       Cu304   1.984       .  S
O299        C308   1.272       .  A
O300       Cu304   1.982       .  S
O300        C307   1.276       .  A
O301       Cu304   2.044       .  S
O301        C306   1.281       .  A
O302       Cu304   2.040       .  S
O302        C305   1.284       .  A
Cu303      Cu304   2.363       .  S
C305        C957   1.494       .  S
C306        C929   1.487       .  S
C307       C1993   1.497       .  S
C308       C1022   1.493       .  S
O309       Cu317   2.037       .  S
O309        C319   1.282       .  A
O310       Cu317   2.043       .  S
O310        C320   1.281       .  A
O311       Cu317   1.996       .  S
O311        C321   1.275       .  A
O312       Cu317   1.995       .  S
O312        C322   1.278       .  A
O313       Cu318   2.022       .  S
O313        C322   1.278       .  A
O314       Cu318   2.017       .  S
O314        C321   1.281       .  A
O315       Cu318   1.974       .  S
O315        C320   1.275       .  A
O316       Cu318   1.990       .  S
O316        C319   1.275       .  A
Cu317      Cu318   2.369       .  S
C319        C873   1.488       .  S
C320        C910   1.482       .  S
C321       C1461   1.485       .  S
C322       C1890   1.480       .  S
O323       Cu331   2.037       .  S
O323        C333   1.282       .  A
O324       Cu331   2.042       .  S
O324        C334   1.282       .  A
O325       Cu331   1.992       .  S
O325        C335   1.275       .  A
O326       Cu331   2.000       .  S
O326        C336   1.276       .  A
O327       Cu332   2.033       .  S
O327        C336   1.281       .  A
O328       Cu332   2.033       .  S
O328        C335   1.282       .  A
O329       Cu332   1.968       .  S
O329        C334   1.274       .  A
O330       Cu332   1.978       .  S
O330        C333   1.274       .  A
Cu331      Cu332   2.367       .  S
C333        C901   1.489       .  S
C334       C1545   1.485       .  S
C335        C845   1.487       .  S
C336        C966   1.482       .  S
O337       Cu345   2.029       .  S
O337        C347   1.281       .  A
O338       Cu345   2.033       .  S
O338        C348   1.282       .  A
O339       Cu345   1.993       .  S
O339        C349   1.275       .  A
O340       Cu345   1.995       .  S
O340        C350   1.275       .  A
O341       Cu346   2.039       .  S
O341        C350   1.283       .  A
O342       Cu346   2.022       .  S
O342        C349   1.280       .  A
O343       Cu346   1.995       .  S
O343        C348   1.275       .  A
O344       Cu346   2.001       .  S
O344        C347   1.276       .  A
Cu345      Cu346   2.371       .  S
C347        C826   1.484       .  S
C348        C994   1.482       .  S
C349       C1946   1.473       .  S
C350        C789   1.488       .  S
O351       Cu359   2.050       .  S
O351        C361   1.282       .  A
O352       Cu359   2.039       .  S
O352        C362   1.284       .  A
O353       Cu359   1.992       .  S
O353        C363   1.274       .  A
O354       Cu359   1.993       .  S
O354        C364   1.275       .  A
O355       Cu360   2.039       .  S
O355        C364   1.282       .  A
O356       Cu360   2.036       .  S
O356        C363   1.283       .  A
O357       Cu360   1.987       .  S
O357        C362   1.273       .  A
O358       Cu360   1.980       .  S
O358        C361   1.275       .  A
Cu359      Cu360   2.366       .  S
C361       C1526   1.487       .  S
C362        C761   1.485       .  S
C363        C798   1.493       .  S
C364       C1414   1.488       .  S
O365       Cu373   1.984       .  S
O365        C375   1.275       .  A
O366       Cu373   1.988       .  S
O366        C376   1.274       .  A
O367       Cu373   2.062       .  S
O367        C377   1.286       .  A
O368       Cu373   2.074       .  S
O368        C378   1.286       .  A
O369       Cu374   1.989       .  S
O369        C378   1.276       .  A
O370       Cu374   1.992       .  S
O370        C377   1.274       .  A
O371       Cu374   2.043       .  S
O371        C376   1.283       .  A
O372       Cu374   2.040       .  S
O372        C375   1.281       .  A
Cu373      Cu374   2.363       .  S
C375        C714   1.489       .  S
C376        C882   1.487       .  S
C377       C2161   1.495       .  S
C378        C733   1.507       .  S
O379       Cu387   1.985       .  S
O379        C389   1.276       .  A
O380       Cu387   1.997       .  S
O380        C390   1.274       .  A
O381       Cu387   2.030       .  S
O381        C391   1.282       .  A
O382       Cu387   2.024       .  S
O382        C392   1.280       .  A
O383       Cu388   1.996       .  S
O383        C392   1.275       .  A
O384       Cu388   1.997       .  S
O384        C391   1.275       .  A
O385       Cu388   2.068       .  S
O385        C390   1.287       .  A
O386       Cu388   2.050       .  S
O386        C389   1.282       .  A
Cu387      Cu388   2.367       .  S
C389       C1134   1.495       .  S
C390        C742   1.501       .  S
C391        C770   1.486       .  S
C392       C1965   1.476       .  S
O393       Cu401   2.039       .  S
O393        C403   1.282       .  A
O394       Cu401   2.037       .  S
O394        C404   1.281       .  A
O395       Cu401   1.985       .  S
O395        C405   1.275       .  A
O396       Cu401   1.996       .  S
O396        C406   1.275       .  A
O397       Cu402   2.033       .  S
O397        C406   1.282       .  A
O398       Cu402   2.033       .  S
O398        C405   1.281       .  A
O399       Cu402   1.977       .  S
O399        C404   1.275       .  A
O400       Cu402   1.985       .  S
O400        C403   1.275       .  A
Cu401      Cu402   2.367       .  S
C403        C705   1.483       .  S
C404       C1218   1.489       .  S
C405       C2478   1.485       .  S
C406        C677   1.489       .  S
O407       Cu415   2.031       .  S
O407        C417   1.281       .  A
O408       Cu415   2.029       .  S
O408        C418   1.279       .  A
O409       Cu415   2.003       .  S
O409        C419   1.277       .  A
O410       Cu415   2.016       .  S
O410        C420   1.277       .  A
O411       Cu416   2.033       .  S
O411        C420   1.282       .  A
O412       Cu416   2.023       .  S
O412        C419   1.278       .  A
O413       Cu416   1.998       .  S
O413        C418   1.278       .  A
O414       Cu416   2.002       .  S
O414        C417   1.276       .  A
Cu415      Cu416   2.369       .  S
C417        C686   1.483       .  S
C418        C938   1.491       .  S
C419       C1834   1.475       .  S
C420        C649   1.494       .  S
O421       Cu429   1.987       .  S
O421        C431   1.276       .  A
O422       Cu429   1.980       .  S
O422        C432   1.275       .  A
O423       Cu429   2.036       .  S
O423        C433   1.282       .  A
O424       Cu429   2.035       .  S
O424        C434   1.280       .  A
O425       Cu430   1.983       .  S
O425        C434   1.276       .  A
O426       Cu430   2.003       .  S
O426        C433   1.276       .  A
O427       Cu430   2.050       .  S
O427        C432   1.283       .  A
O428       Cu430   2.046       .  S
O428        C431   1.282       .  A
Cu429      Cu430   2.365       .  S
C431       C1358   1.493       .  S
C432        C621   1.495       .  S
C433        C658   1.491       .  S
C434       C1713   1.484       .  S
O435       Cu443   1.992       .  S
O435        C445   1.274       .  A
O436       Cu443   1.992       .  S
O436        C446   1.274       .  A
O437       Cu443   2.052       .  S
O437        C447   1.282       .  A
O438       Cu443   2.050       .  S
O438        C448   1.286       .  A
O439       Cu444   1.996       .  S
O439        C448   1.274       .  A
O440       Cu444   1.988       .  S
O440        C447   1.276       .  A
O441       Cu444   2.031       .  S
O441        C446   1.282       .  A
O442       Cu444   2.038       .  S
O442        C445   1.283       .  A
Cu443      Cu444   2.364       .  S
C445        C630   1.487   1_455  S
C446       C2086   1.490       .  S
C447       C1050   1.492       .  S
C448        C593   1.499       .  S
O449       Cu457   2.033       .  S
O449        C459   1.279       .  A
O450       Cu457   2.034       .  S
O450        C460   1.283       .  A
O451       Cu457   1.990       .  S
O451        C461   1.276       .  A
O452       Cu457   1.973       .  S
O452        C462   1.274       .  A
O453       Cu458   2.049       .  S
O453        C462   1.283       .  A
O454       Cu458   2.053       .  S
O454        C461   1.283       .  A
O455       Cu458   1.996       .  S
O455        C460   1.275       .  A
O456       Cu458   1.982       .  S
O456        C459   1.275       .  A
Cu457      Cu458   2.366       .  S
C459       C1181   1.475       .  S
C460        C574   1.494       .  S
C461        C546   1.496       .  S
C462       C2329   1.490       .  S
O463       Cu471   2.032       .  S
O463        C473   1.282       .  A
O464       Cu471   2.038       .  S
O464        C474   1.282       .  A
O465       Cu471   2.004       .  S
O465        C475   1.276       .  A
O466       Cu471   2.012       .  S
O466        C476   1.277       .  A
O467       Cu472   2.030       .  S
O467        C476   1.281       .  A
O468       Cu472   2.024       .  S
O468        C475   1.281       .  A
O469       Cu472   1.993       .  S
O469        C474   1.275       .  A
O470       Cu472   1.997       .  S
O470        C473   1.275       .  A
Cu471      Cu472   2.368       .  S
C473        C565   1.485       .  S
C474       C1638   1.486       .  S
C475       C1442   1.491       .  S
C476        C602   1.486       .  S
O477       Cu485   1.998       .  S
O477        C487   1.277       .  A
O478       Cu485   1.994       .  S
O478        C488   1.275       .  A
O479       Cu485   2.049       .  S
O479        C489   1.283       .  A
O480       Cu485   2.053       .  S
O480        C490   1.283       .  A
O481       Cu486   1.976       .  S
O481        C490   1.274       .  A
O482       Cu486   1.979       .  S
O482        C489   1.275       .  A
O483       Cu486   2.033       .  S
O483        C488   1.282       .  A
O484       Cu486   2.039       .  S
O484        C487   1.281       .  A
Cu485      Cu486   2.364       .  S
C487        C537   1.489       .  S
C488       C2226   1.491       .  S
C489        C854   1.494       .  S
C490        C518   1.494       .  S
O491       Cu499   1.990       .  S
O491        C501   1.274       .  A
O492       Cu499   1.984       .  S
O492        C502   1.274       .  A
O493       Cu499   2.046       .  S
O493        C503   1.283       .  A
O494       Cu499   2.047       .  S
O494        C504   1.283       .  A
O495       Cu500   1.986       .  S
O495        C504   1.274       .  A
O496       Cu500   1.983       .  S
O496        C503   1.274       .  A
O497       Cu500   2.031       .  S
O497        C502   1.282       .  A
O498       Cu500   2.033       .  S
O498        C501   1.282       .  A
Cu499      Cu500   2.366       .  S
C501        C509   1.490       .  S
C502       C1694   1.487       .  S
C503       C1274   1.488       .  S
C504        C817   1.484       .  S
C505        C506   1.397       .  A
C505        C510   1.398       .  A
C505        H515   1.085       .  S
C506        C511   1.480       .  S
C506        C507   1.409       .  A
C507        C508   1.404       .  A
C507        N512   1.428       .  S
C508        C509   1.407       .  A
C508        H513   1.084       .  S
C509        C510   1.420       .  A
C510        N514   1.429       .  S
C511        C516   1.405       .  A
C511        C520   1.403       .  A
N512        O527   1.262       .  A
N512        O528   1.261       .  A
N514        O525   1.262       .  A
N514        O526   1.261       .  A
C516        C517   1.396       .  A
C516        N521   1.430       .  S
C517        C518   1.410       .  A
C517        H522   1.084       .  S
C518        C519   1.415       .  A
C519        C520   1.407       .  A
C519        N523   1.427       .  S
C520        H524   1.085       .  S
N521        O531   1.262       .  A
N521        O532   1.262       .  A
N523        O529   1.262       .  A
N523        O530   1.262       .  A
C533        C534   1.408       .  A
C533        C538   1.407       .  A
C533        H543   1.084       .  S
C534        C539   1.497       .  S
C534        C535   1.412       .  A
C535        C536   1.399       .  A
C535        N540   1.429       .  S
C536        C537   1.405       .  A
C536        H541   1.085       .  S
C537        C538   1.413       .  A
C538        N542   1.429       .  S
C539        C544   1.411       .  A
C539        C548   1.408       .  A
N540        O555   1.262       .  A
N540        O556   1.262       .  A
N542        O553   1.262       .  A
N542        O554   1.262       .  A
C544        C545   1.400       .  A
C544        N549   1.429       .  S
C545        C546   1.408       .  A
C545        H550   1.085       .  S
C546        C547   1.414       .  A
C547        C548   1.407       .  A
C547        N551   1.428       .  S
C548        H552   1.084       .  S
N549        O559   1.262       .  A
N549        O560   1.262       .  A
N551        O557   1.262       .  A
N551        O558   1.262       .  A
C561        C562   1.401       .  A
C561        C566   1.399       .  A
C561        H571   1.085       .  S
C562        C567   1.490   1_565  S
C562        C563   1.415       .  A
C563        C564   1.404       .  A
C563        N568   1.429       .  S
C564        C565   1.403       .  A
C564        H569   1.085       .  S
C565        C566   1.415       .  A
C566        N570   1.429       .  S
C567        C572   1.413       .  A
C567        C576   1.401       .  A
N568        O583   1.262       .  A
N568        O584   1.262       .  A
N570        O581   1.262       .  A
N570        O582   1.262       .  A
C572        C573   1.403       .  A
C572        N577   1.429       .  S
C573        C574   1.406       .  A
C573        H578   1.085       .  S
C574        C575   1.419       .  A
C575        C576   1.400       .  A
C575        N579   1.429       .  S
C576        H580   1.085   1_545  S
N577        O587   1.262       .  A
N577        O588   1.262       .  A
N579        O585   1.262       .  A
N579        O586   1.262       .  A
C589        C590   1.403       .  A
C589        C594   1.404       .  A
C589        H599   1.084       .  S
C590        C595   1.502       .  S
C590        C591   1.417       .  A
C591        C592   1.404       .  A
C591        N596   1.428       .  S
C592        C593   1.404       .  A
C592        H597   1.085       .  S
C593        C594   1.422       .  A
C594        N598   1.429       .  S
C595        C600   1.418       .  A
C595        C604   1.406       .  A
N596        O611   1.262       .  A
N596        O612   1.261       .  A
N598        O609   1.262       .  A
N598        O610   1.262       .  A
C600        C601   1.404       .  A
C600        N605   1.429       .  S
C601        C602   1.402       .  A
C601        H606   1.086       .  S
C602        C603   1.412       .  A
C603        C604   1.403       .  A
C603        N607   1.429       .  S
C604        H608   1.084       .  S
N605        O615   1.262       .  A
N605        O616   1.262       .  A
N607        O613   1.262       .  A
N607        O614   1.262       .  A
C617        C618   1.405       .  A
C617        C622   1.406       .  A
C617        H627   1.085       .  S
C618        C623   1.483       .  S
C618        C619   1.406       .  A
C619        C620   1.397       .  A
C619        N624   1.429       .  S
C620        C621   1.410       .  A
C620        H625   1.084       .  S
C621        C622   1.415       .  A
C622        N626   1.428       .  S
C623        C628   1.412       .  A
C623        C632   1.396       .  A
N624        O639   1.262   1_655  A
N624        O640   1.262       .  A
N626        O637   1.262       .  A
N626        O638   1.262       .  A
C628        C629   1.406       .  A
C628        N633   1.428       .  S
C629        C630   1.405       .  A
C629        H634   1.085       .  S
C630        C631   1.417       .  A
C631        C632   1.396       .  A
C631        N635   1.428   1_655  S
C632        H636   1.086       .  S
N633        O643   1.262       .  A
N633        O644   1.262       .  A
N635        O641   1.261   1_455  A
N635        O642   1.262       .  A
C645        C646   1.404   1_455  A
C645        C650   1.405       .  A
C645        H655   1.084       .  S
C646        C651   1.498       .  S
C646        C647   1.415       .  A
C647        C648   1.403   1_655  A
C647        N652   1.429       .  S
C648        C649   1.405       .  A
C648        H653   1.085   1_455  S
C649        C650   1.416       .  A
C650        N654   1.428       .  S
C651        C656   1.416       .  A
C651        C660   1.403       .  A
N652        O667   1.262       .  A
N652        O668   1.262       .  A
N654        O665   1.262       .  A
N654        O666   1.262       .  A
C656        C657   1.406       .  A
C656        N661   1.429   1_655  S
C657        C658   1.404       .  A
C657        H662   1.085       .  S
C658        C659   1.416       .  A
C659        C660   1.401       .  A
C659        N663   1.429       .  S
C660        H664   1.084       .  S
N661        O671   1.262       .  A
N661        O672   1.262       .  A
N663        O669   1.262       .  A
N663        O670   1.262       .  A
C673        C674   1.398   1_655  A
C673        C678   1.397       .  A
C673        H683   1.086       .  S
C674        C679   1.480       .  S
C674        C675   1.409       .  A
C675        C676   1.405   1_455  A
C675        N680   1.428       .  S
C676        C677   1.408       .  A
C676        H681   1.085       .  S
C677        C678   1.417       .  A
C678        N682   1.429       .  S
C679        C684   1.410       .  A
C679        C688   1.399       .  A
N680        O695   1.262       .  A
N680        O696   1.262       .  A
N682        O693   1.262       .  A
N682        O694   1.262       .  A
C684        C685   1.402       .  A
C684        N689   1.428       .  S
C685        C686   1.403       .  A
C685        H690   1.085       .  S
C686        C687   1.416       .  A
C687        C688   1.401       .  A
C687        N691   1.429       .  S
C688        H692   1.086       .  S
N689        O699   1.262       .  A
N689        O700   1.262       .  A
N691        O697   1.262       .  A
N691        O698   1.261       .  A
C701        C702   1.406       .  A
C701        C706   1.403       .  A
C701        H711   1.084       .  S
C702        C707   1.490       .  S
C702        C703   1.411       .  A
C703        C704   1.398       .  A
C703        N708   1.429       .  S
C704        C705   1.405       .  A
C704        H709   1.085       .  S
C705        C706   1.411       .  A
C706        N710   1.428       .  S
C707        C712   1.409       .  A
C707        C716   1.407       .  A
N708        O723   1.262       .  A
N708        O724   1.262       .  A
N710        O721   1.262       .  A
N710        O722   1.262       .  A
C712        C713   1.396       .  A
C712        N717   1.429       .  S
C713        C714   1.407       .  A
C713        H718   1.085       .  S
C714        C715   1.413       .  A
C715        C716   1.405       .  A
C715        N719   1.428       .  S
C716        H720   1.084       .  S
N717        O727   1.262       .  A
N717        O728   1.262       .  A
N719        O725   1.262       .  A
N719        O726   1.262       .  A
C729        C730   1.409   1_545  A
C729        C734   1.414       .  A
C729        H739   1.084       .  S
C730        C735   1.499       .  S
C730        C731   1.408   1_565  A
C731        C732   1.400       .  A
C731        N736   1.429   1_545  S
C732        C733   1.411       .  A
C732        H737   1.084       .  S
C733        C734   1.417       .  A
C734        N738   1.428       .  S
C735        C740   1.416       .  A
C735        C744   1.400       .  A
N736        O751   1.262       .  A
N736        O752   1.262       .  A
N738        O749   1.262       .  A
N738        O750   1.262       .  A
C740        C741   1.411       .  A
C740        N745   1.428       .  S
C741        C742   1.406       .  A
C741        H746   1.084       .  S
C742        C743   1.420       .  A
C743        C744   1.404       .  A
C743        N747   1.429       .  S
C744        H748   1.085       .  S
N745        O755   1.262       .  A
N745        O756   1.262       .  A
N747        O753   1.262       .  A
N747        O754   1.262       .  A
C757        C758   1.402       .  A
C757        C762   1.402       .  A
C757        H767   1.085       .  S
C758        C763   1.488       .  S
C758        C759   1.413       .  A
C759        C760   1.400       .  A
C759        N764   1.428       .  S
C760        C761   1.402       .  A
C760        H765   1.085       .  S
C761        C762   1.417       .  A
C762        N766   1.430       .  S
C763        C768   1.413       .  A
C763        C772   1.400       .  A
N764        O779   1.262       .  A
N764        O780   1.262       .  A
N766        O777   1.262       .  A
N766        O778   1.262       .  A
C768        C769   1.403       .  A
C768        N773   1.428       .  S
C769        C770   1.404       .  A
C769        H774   1.085       .  S
C770        C771   1.416       .  A
C771        C772   1.399       .  A
C771        N775   1.429       .  S
C772        H776   1.085       .  S
N773        O783   1.262       .  A
N773        O784   1.262       .  A
N775        O781   1.262       .  A
N775        O782   1.262       .  A
C785        C786   1.400       .  A
C785        C790   1.401       .  A
C785        H795   1.085       .  S
C786        C791   1.489       .  S
C786        C787   1.414       .  A
C787        C788   1.403       .  A
C787        N792   1.429       .  S
C788        C789   1.403       .  A
C788        H793   1.085       .  S
C789        C790   1.418       .  A
C790        N794   1.429       .  S
C791        C796   1.413       .  A
C791        C800   1.400       .  A
N792        O807   1.262       .  A
N792        O808   1.262       .  A
N794        O805   1.262       .  A
N794        O806   1.262       .  A
C796        C797   1.404       .  A
C796        N801   1.428       .  S
C797        C798   1.406       .  A
C797        H802   1.085       .  S
C798        C799   1.419       .  A
C799        C800   1.398       .  A
C799        N803   1.429       .  S
C800        H804   1.085       .  S
N801        O811   1.262       .  A
N801        O812   1.262       .  A
N803        O809   1.262       .  A
N803        O810   1.262       .  A
C813        C814   1.403       .  A
C813        C818   1.403       .  A
C813        H823   1.085       .  S
C814        C819   1.482   1_554  S
C814        C815   1.408       .  A
C815        C816   1.401       .  A
C815        N820   1.429   1_554  S
C816        C817   1.407       .  A
C816        H821   1.085       .  S
C817        C818   1.411       .  A
C818        N822   1.427       .  S
C819        C824   1.411       .  A
C819        C828   1.399       .  A
N820        O835   1.262       .  A
N820        O836   1.262       .  A
N822        O833   1.261       .  A
N822        O834   1.262       .  A
C824        C825   1.404       .  A
C824        N829   1.428       .  S
C825        C826   1.404       .  A
C825        H830   1.085       .  S
C826        C827   1.416       .  A
C827        C828   1.399       .  A
C827        N831   1.429       .  S
C828        H832   1.085   1_556  S
N829        O839   1.262       .  A
N829        O840   1.262       .  A
N831        O837   1.262       .  A
N831        O838   1.262       .  A
C841        C842   1.397   1_556  A
C841        C846   1.398   1_545  A
C841        H851   1.085       .  S
C842        C847   1.479       .  S
C842        C843   1.409   1_545  A
C843        C844   1.404       .  A
C843        N848   1.428   1_565  S
C844        C845   1.406   1_554  A
C844        H849   1.085       .  S
C845        C846   1.417       .  A
C846        N850   1.429       .  S
C847        C852   1.404       .  A
C847        C856   1.403       .  A
N848        O863   1.262   1_545  A
N848        O864   1.261       .  A
N850        O861   1.262       .  A
N850        O862   1.261       .  A
C852        C853   1.394       .  A
C852        N857   1.430       .  S
C853        C854   1.409       .  A
C853        H858   1.084       .  S
C854        C855   1.417       .  A
C855        C856   1.408       .  A
C855        N859   1.428       .  S
C856        H860   1.085       .  S
N857        O867   1.262   1_554  A
N857        O868   1.261       .  A
N859        O865   1.262       .  A
N859        O866   1.262       .  A
C869        C870   1.399       .  A
C869        C874   1.397       .  A
C869        H879   1.086       .  S
C870        C875   1.481       .  S
C870        C871   1.408       .  A
C871        C872   1.406       .  A
C871        N876   1.427       .  S
C872        C873   1.407       .  A
C872        H877   1.085       .  S
C873        C874   1.416       .  A
C874        N878   1.430       .  S
C875        C880   1.409       .  A
C875        C884   1.399       .  A
N876        O891   1.262       .  A
N876        O892   1.262       .  A
N878        O889   1.262       .  A
N878        O890   1.262       .  A
C880        C881   1.404       .  A
C880        N885   1.427       .  S
C881        C882   1.405       .  A
C881        H886   1.085       .  S
C882        C883   1.418       .  A
C883        C884   1.399       .  A
C883        N887   1.430       .  S
C884        H888   1.085       .  S
N885        O895   1.262       .  A
N885        O896   1.262       .  A
N887        O893   1.262       .  A
N887        O894   1.262       .  A
C897        C898   1.404       .  A
C897        C902   1.401       .  A
C897        H907   1.084   1_565  S
C898        C903   1.487   1_565  S
C898        C899   1.409       .  A
C899        C900   1.398       .  A
C899        N904   1.430       .  S
C900        C901   1.409       .  A
C900        H905   1.085       .  S
C901        C902   1.412       .  A
C902        N906   1.427       .  S
C903        C908   1.409       .  A
C903        C912   1.408       .  A
N904        O919   1.262       .  A
N904        O920   1.262       .  A
N906        O917   1.262       .  A
N906        O918   1.262   1_565  A
C908        C909   1.392       .  A
C908        N913   1.429   1_545  S
C909        C910   1.404       .  A
C909        H914   1.085       .  S
C910        C911   1.412       .  A
C911        C912   1.407       .  A
C911        N915   1.428       .  S
C912        H916   1.085       .  S
N913        O923   1.262   1_565  A
N913        O924   1.262       .  A
N915        O921   1.262       .  A
N915        O922   1.262       .  A
C925        C926   1.403       .  A
C925        C930   1.403       .  A
C925        H935   1.085       .  S
C926        C931   1.488       .  S
C926        C927   1.409       .  A
C927        C928   1.400       .  A
C927        N932   1.428       .  S
C928        C929   1.406       .  A
C928        H933   1.085       .  S
C929        C930   1.413       .  A
C930        N934   1.426       .  S
C931        C936   1.410       .  A
C931        C940   1.403       .  A
N932        O947   1.262       .  A
N932        O948   1.262       .  A
N934        O945   1.261       .  A
N934        O946   1.262       .  A
C936        C937   1.396       .  A
C936        N941   1.430       .  S
C937        C938   1.406       .  A
C937        H942   1.085       .  S
C938        C939   1.417       .  A
C939        C940   1.406       .  A
C939        N943   1.428       .  S
C940        H944   1.085       .  S
N941        O951   1.262       .  A
N941        O952   1.262       .  A
N943        O949   1.262       .  A
N943        O950   1.262       .  A
C953        C954   1.402       .  A
C953        C958   1.401       .  A
C953        H963   1.084       .  S
C954        C959   1.496       .  S
C954        C955   1.416       .  A
C955        C956   1.403       .  A
C955        N960   1.429       .  S
C956        C957   1.404       .  A
C956        H961   1.085       .  S
C957        C958   1.420       .  A
C958        N962   1.429       .  S
C959        C964   1.418       .  A
C959        C968   1.404       .  A
N960        O975   1.262       .  A
N960        O976   1.261       .  A
N962        O973   1.262       .  A
N962        O974   1.262       .  A
C964        C965   1.404       .  A
C964        N969   1.429       .  S
C965        C966   1.402       .  A
C965        H970   1.085       .  S
C966        C967   1.411       .  A
C967        C968   1.401       .  A
C967        N971   1.429       .  S
C968        H972   1.084       .  S
N969        O979   1.262       .  A
N969        O980   1.262       .  A
N971        O977   1.262       .  A
N971        O978   1.262       .  A
C981        C982   1.406       .  A
C981        C986   1.408       .  A
C981        H991   1.085       .  S
C982        C987   1.492       .  S
C982        C983   1.410       .  A
C983        C984   1.400       .  A
C983        N988   1.430       .  S
C984        C985   1.409       .  A
C984        H989   1.084       .  S
C985        C986   1.414       .  A
C986        N990   1.427       .  S
C987        C992   1.415       .  A
C987        C996   1.403       .  A
N988       O1003   1.262       .  A
N988       O1004   1.262       .  A
N990       O1001   1.262       .  A
N990       O1002   1.262       .  A
C992        C993   1.404       .  A
C992        N997   1.429       .  S
C993        C994   1.402       .  A
C993        H998   1.085       .  S
C994        C995   1.412       .  A
C995        C996   1.401       .  A
C995        N999   1.429       .  S
C996       H1000   1.085       .  S
N997       O1007   1.262       .  A
N997       O1008   1.262       .  A
N999       O1005   1.262       .  A
N999       O1006   1.262       .  A
C1009      C1010   1.406       .  A
C1009      C1014   1.408       .  A
C1009      H1019   1.085       .  S
C1010      C1015   1.486   1_655  S
C1010      C1011   1.407       .  A
C1011      C1012   1.398       .  A
C1011      N1016   1.429       .  S
C1012      C1013   1.411       .  A
C1012      H1017   1.084       .  S
C1013      C1014   1.415       .  A
C1014      N1018   1.428       .  S
C1015      C1020   1.412       .  A
C1015      C1024   1.396       .  A
N1016      O1031   1.262       .  A
N1016      O1032   1.262       .  A
N1018      O1029   1.262       .  A
N1018      O1030   1.262       .  A
C1020      C1021   1.407       .  A
C1020      N1025   1.428       .  S
C1021      C1022   1.406       .  A
C1021      H1026   1.085       .  S
C1022      C1023   1.422       .  A
C1023      C1024   1.399       .  A
C1023      N1027   1.430       .  S
C1024      H1028   1.086   1_455  S
N1025      O1035   1.262       .  A
N1025      O1036   1.262       .  A
N1027      O1033   1.262       .  A
N1027      O1034   1.261       .  A
C1037      C1038   1.407       .  A
C1037      C1042   1.408       .  A
C1037      H1047   1.085       .  S
C1038      C1043   1.490       .  S
C1038      C1039   1.410       .  A
C1039      C1040   1.395       .  A
C1039      N1044   1.429       .  S
C1040      C1041   1.405       .  A
C1040      H1045   1.085       .  S
C1041      C1042   1.414       .  A
C1042      N1046   1.428       .  S
C1043      C1048   1.409       .  A
C1043      C1052   1.405       .  A
N1044      O1059   1.262       .  A
N1044      O1060   1.262       .  A
N1046      O1057   1.262       .  A
N1046      O1058   1.262       .  A
C1048      C1049   1.398       .  A
C1048      N1053   1.429       .  S
C1049      C1050   1.407   1_655  A
C1049      H1054   1.085       .  S
C1050      C1051   1.414   1_455  A
C1051      C1052   1.407       .  A
C1051      N1055   1.427   1_655  S
C1052      H1056   1.085       .  S
N1053      O1063   1.262       .  A
N1053      O1064   1.262       .  A
N1055      O1061   1.262       .  A
N1055      O1062   1.261   1_455  A
C1065      C1066   1.406       .  A
C1065      C1070   1.404       .  A
C1065      H1075   1.085       .  S
C1066      C1071   1.488       .  S
C1066      C1067   1.408       .  A
C1067      C1068   1.396       .  A
C1067      N1072   1.429       .  S
C1068      C1069   1.407       .  A
C1068      H1073   1.085       .  S
C1069      C1070   1.414       .  A
C1070      N1074   1.429       .  S
C1071      C1076   1.409       .  A
C1071      C1080   1.407       .  A
N1072      O1087   1.262       .  A
N1072      O1088   1.262       .  A
N1074      O1085   1.262       .  A
N1074      O1086   1.262       .  A
C1076      C1077   1.397       .  A
C1076      N1081   1.429       .  S
C1077      C1078   1.404       .  A
C1077      H1082   1.085       .  S
C1078      C1079   1.411       .  A
C1079      C1080   1.405       .  A
C1079      N1083   1.428       .  S
C1080      H1084   1.085       .  S
N1081      O1091   1.262       .  A
N1081      O1092   1.262       .  A
N1083      O1089   1.262       .  A
N1083      O1090   1.262       .  A
C1093      C1094   1.410       .  A
C1093      C1098   1.409       .  A
C1093      H1103   1.084       .  S
C1094      C1099   1.499       .  S
C1094      C1095   1.413       .  A
C1095      C1096   1.397       .  A
C1095      N1100   1.429       .  S
C1096      C1097   1.405       .  A
C1096      H1101   1.085       .  S
C1097      C1098   1.411       .  A
C1098      N1102   1.428       .  S
C1099      C1104   1.412       .  A
C1099      C1108   1.408       .  A
N1100      O1115   1.262       .  A
N1100      O1116   1.262       .  A
N1102      O1113   1.262       .  A
N1102      O1114   1.262       .  A
C1104      C1105   1.399       .  A
C1104      N1109   1.429       .  S
C1105      C1106   1.408       .  A
C1105      H1110   1.084       .  S
C1106      C1107   1.415       .  A
C1107      C1108   1.408       .  A
C1107      N1111   1.428       .  S
C1108      H1112   1.084       .  S
N1109      O1119   1.262       .  A
N1109      O1120   1.262       .  A
N1111      O1117   1.262       .  A
N1111      O1118   1.262       .  A
C1121      C1122   1.399       .  A
C1121      C1126   1.399       .  A
C1121      H1131   1.085       .  S
C1122      C1127   1.483       .  S
C1122      C1123   1.412       .  A
C1123      C1124   1.403       .  A
C1123      N1128   1.428       .  S
C1124      C1125   1.402       .  A
C1124      H1129   1.085       .  S
C1125      C1126   1.414       .  A
C1126      N1130   1.429       .  S
C1127      C1132   1.406       .  A
C1127      C1136   1.404       .  A
N1128      O1143   1.262       .  A
N1128      O1144   1.262       .  A
N1130      O1141   1.262       .  A
N1130      O1142   1.262       .  A
C1132      C1133   1.395       .  A
C1132      N1137   1.430       .  S
C1133      C1134   1.409       .  A
C1133      H1138   1.084       .  S
C1134      C1135   1.417       .  A
C1135      C1136   1.409       .  A
C1135      N1139   1.428       .  S
C1136      H1140   1.085       .  S
N1137      O1147   1.262       .  A
N1137      O1148   1.262       .  A
N1139      O1145   1.262       .  A
N1139      O1146   1.261       .  A
C1149      C1150   1.405       .  A
C1149      C1154   1.406       .  A
C1149      H1159   1.085       .  S
C1150      C1155   1.484       .  S
C1150      C1151   1.407       .  A
C1151      C1152   1.399       .  A
C1151      N1156   1.429       .  S
C1152      C1153   1.408       .  A
C1152      H1157   1.085       .  S
C1153      C1154   1.413       .  A
C1154      N1158   1.428       .  S
C1155      C1160   1.413       .  A
C1155      C1164   1.399       .  A
N1156      O1171   1.262       .  A
N1156      O1172   1.262       .  A
N1158      O1169   1.262       .  A
N1158      O1170   1.262       .  A
C1160      C1161   1.405       .  A
C1160      N1165   1.429       .  S
C1161      C1162   1.404       .  A
C1161      H1166   1.085       .  S
C1162      C1163   1.414       .  A
C1163      C1164   1.399       .  A
C1163      N1167   1.429       .  S
C1164      H1168   1.085       .  S
N1165      O1175   1.262       .  A
N1165      O1176   1.262       .  A
N1167      O1173   1.262       .  A
N1167      O1174   1.262       .  A
C1177      C1178   1.409       .  A
C1177      C1182   1.407       .  A
C1177      H1187   1.084       .  S
C1178      C1183   1.491       .  S
C1178      C1179   1.413       .  A
C1179      C1180   1.392       .  A
C1179      N1184   1.429       .  S
C1180      C1181   1.399       .  A
C1180      H1185   1.086       .  S
C1181      C1182   1.411       .  A
C1182      N1186   1.429       .  S
C1183      C1188   1.411       .  A
C1183      C1192   1.406       .  A
N1184      O1199   1.262       .  A
N1184      O1200   1.262       .  A
N1186      O1197   1.262       .  A
N1186      O1198   1.262       .  A
C1188      C1189   1.396       .  A
C1188      N1193   1.430       .  S
C1189      C1190   1.408       .  A
C1189      H1194   1.085       .  S
C1190      C1191   1.413       .  A
C1191      C1192   1.403       .  A
C1191      N1195   1.428       .  S
C1192      H1196   1.084       .  S
N1193      O1203   1.262       .  A
N1193      O1204   1.262       .  A
N1195      O1201   1.262       .  A
N1195      O1202   1.262       .  A
C1205      C1206   1.399       .  A
C1205      C1210   1.396       .  A
C1205      H1215   1.085       .  S
C1206      C1211   1.476       .  S
C1206      C1207   1.411       .  A
C1207      C1208   1.401       .  A
C1207      N1212   1.428       .  S
C1208      C1209   1.401       .  A
C1208      H1213   1.085       .  S
C1209      C1210   1.412       .  A
C1210      N1214   1.430       .  S
C1211      C1216   1.407       .  A
C1211      C1220   1.402   1_455  A
N1212      O1227   1.262       .  A
N1212      O1228   1.262       .  A
N1214      O1225   1.262       .  A
N1214      O1226   1.262       .  A
C1216      C1217   1.395   1_455  A
C1216      N1221   1.430       .  S
C1217      C1218   1.409       .  A
C1217      H1222   1.084       .  S
C1218      C1219   1.415       .  A
C1219      C1220   1.404       .  A
C1219      N1223   1.428       .  S
C1220      H1224   1.085       .  S
N1221      O1231   1.262       .  A
N1221      O1232   1.262       .  A
N1223      O1229   1.262       .  A
N1223      O1230   1.262       .  A
C1233      C1234   1.405       .  A
C1233      C1238   1.407       .  A
C1233      H1243   1.085       .  S
C1234      C1239   1.487       .  S
C1234      C1235   1.408       .  A
C1235      C1236   1.398       .  A
C1235      N1240   1.429       .  S
C1236      C1237   1.408       .  A
C1236      H1241   1.084       .  S
C1237      C1238   1.415       .  A
C1238      N1242   1.428       .  S
C1239      C1244   1.413       .  A
C1239      C1248   1.400       .  A
N1240      O1255   1.262       .  A
N1240      O1256   1.262       .  A
N1242      O1253   1.262       .  A
N1242      O1254   1.262       .  A
C1244      C1245   1.405       .  A
C1244      N1249   1.428       .  S
C1245      C1246   1.404       .  A
C1245      H1250   1.085       .  S
C1246      C1247   1.416       .  A
C1247      C1248   1.399       .  A
C1247      N1251   1.429       .  S
C1248      H1252   1.085       .  S
N1249      O1259   1.262       .  A
N1249      O1260   1.262       .  A
N1251      O1257   1.262       .  A
N1251      O1258   1.262       .  A
C1261      C1262   1.407       .  A
C1261      C1266   1.408       .  A
C1261      H1271   1.084       .  S
C1262      C1267   1.490       .  S
C1262      C1263   1.410       .  A
C1263      C1264   1.394       .  A
C1263      N1268   1.430       .  S
C1264      C1265   1.406       .  A
C1264      H1269   1.085       .  S
C1265      C1266   1.413       .  A
C1266      N1270   1.427       .  S
C1267      C1272   1.410       .  A
C1267      C1276   1.405       .  A
N1268      O1283   1.262       .  A
N1268      O1284   1.262       .  A
N1270      O1281   1.261       .  A
N1270      O1282   1.262       .  A
C1272      C1273   1.400       .  A
C1272      N1277   1.429       .  S
C1273      C1274   1.408       .  A
C1273      H1278   1.085       .  S
C1274      C1275   1.411       .  A
C1275      C1276   1.403       .  A
C1275      N1279   1.427       .  S
C1276      H1280   1.084       .  S
N1277      O1287   1.262       .  A
N1277      O1288   1.262       .  A
N1279      O1285   1.262       .  A
N1279      O1286   1.261       .  A
C1289      C1290   1.402       .  A
C1289      C1294   1.402       .  A
C1289      H1299   1.085       .  S
C1290      C1295   1.486       .  S
C1290      C1291   1.410       .  A
C1291      C1292   1.400       .  A
C1291      N1296   1.429       .  S
C1292      C1293   1.406       .  A
C1292      H1297   1.085       .  S
C1293      C1294   1.417       .  A
C1294      N1298   1.429       .  S
C1295      C1300   1.412       .  A
C1295      C1304   1.401       .  A
N1296      O1311   1.262       .  A
N1296      O1312   1.262       .  A
N1298      O1309   1.262       .  A
N1298      O1310   1.262       .  A
C1300      C1301   1.402       .  A
C1300      N1305   1.428       .  S
C1301      C1302   1.401       .  A
C1301      H1306   1.085       .  S
C1302      C1303   1.414       .  A
C1303      C1304   1.400       .  A
C1303      N1307   1.429       .  S
C1304      H1308   1.085       .  S
N1305      O1315   1.262       .  A
N1305      O1316   1.262       .  A
N1307      O1313   1.262       .  A
N1307      O1314   1.262       .  A
C1317      C1318   1.405       .  A
C1317      C1322   1.409       .  A
C1317      H1327   1.085       .  S
C1318      C1323   1.484       .  S
C1318      C1319   1.405       .  A
C1319      C1320   1.397       .  A
C1319      N1324   1.428       .  S
C1320      C1321   1.408       .  A
C1320      H1325   1.085       .  S
C1321      C1322   1.415       .  A
C1322      N1326   1.428       .  S
C1323      C1328   1.404   1_655  A
C1323      C1332   1.404   1_655  A
N1324      O1339   1.262       .  A
N1324      O1340   1.262       .  A
N1326      O1337   1.262       .  A
N1326      O1338   1.262       .  A
C1328      C1329   1.397       .  A
C1328      N1333   1.429   1_455  S
C1329      C1330   1.411       .  A
C1329      H1334   1.084       .  S
C1330      C1331   1.415       .  A
C1331      C1332   1.409       .  A
C1331      N1335   1.428       .  S
C1332      H1336   1.085       .  S
N1333      O1343   1.262       .  A
N1333      O1344   1.262       .  A
N1335      O1341   1.262       .  A
N1335      O1342   1.262       .  A
C1345      C1346   1.399       .  A
C1345      C1350   1.401       .  A
C1345      H1355   1.085       .  S
C1346      C1351   1.485       .  S
C1346      C1347   1.410       .  A
C1347      C1348   1.403       .  A
C1347      N1352   1.428       .  S
C1348      C1349   1.406       .  A
C1348      H1353   1.084       .  S
C1349      C1350   1.418       .  A
C1350      N1354   1.429       .  S
C1351      C1356   1.407       .  A
C1351      C1360   1.405       .  A
N1352      O1367   1.262       .  A
N1352      O1368   1.262       .  A
N1354      O1365   1.262       .  A
N1354      O1366   1.261       .  A
C1356      C1357   1.397       .  A
C1356      N1361   1.430       .  S
C1357      C1358   1.408       .  A
C1357      H1362   1.084       .  S
C1358      C1359   1.416       .  A
C1359      C1360   1.408       .  A
C1359      N1363   1.428       .  S
C1360      H1364   1.085       .  S
N1361      O1371   1.262       .  A
N1361      O1372   1.262       .  A
N1363      O1369   1.262       .  A
N1363      O1370   1.262       .  A
C1373      C1374   1.406       .  A
C1373      C1378   1.411       .  A
C1373      H1383   1.085       .  S
C1374      C1379   1.491       .  S
C1374      C1375   1.407       .  A
C1375      C1376   1.399       .  A
C1375      N1380   1.428       .  S
C1376      C1377   1.407       .  A
C1376      H1381   1.085       .  S
C1377      C1378   1.417       .  A
C1378      N1382   1.429       .  S
C1379      C1384   1.412       .  A
C1379      C1388   1.402       .  A
N1380      O1395   1.262       .  A
N1380      O1396   1.261       .  A
N1382      O1393   1.262       .  A
N1382      O1394   1.262       .  A
C1384      C1385   1.405       .  A
C1384      N1389   1.428       .  S
C1385      C1386   1.404       .  A
C1385      H1390   1.085       .  S
C1386      C1387   1.416       .  A
C1387      C1388   1.406       .  A
C1387      N1391   1.429       .  S
C1388      H1392   1.085       .  S
N1389      O1399   1.262       .  A
N1389      O1400   1.261       .  A
N1391      O1397   1.262       .  A
N1391      O1398   1.262       .  A
C1401      C1402   1.402       .  A
C1401      C1406   1.400   1_556  A
C1401      H1411   1.085   1_556  S
C1402      C1407   1.490       .  S
C1402      C1403   1.414       .  A
C1403      C1404   1.402       .  A
C1403      N1408   1.429       .  S
C1404      C1405   1.403   1_556  A
C1404      H1409   1.085   1_565  S
C1405      C1406   1.415       .  A
C1406      N1410   1.429       .  S
C1407      C1412   1.414       .  A
C1407      C1416   1.401       .  A
N1408      O1423   1.262       .  A
N1408      O1424   1.262       .  A
N1410      O1421   1.262       .  A
N1410      O1422   1.262       .  A
C1412      C1413   1.406       .  A
C1412      N1417   1.429       .  S
C1413      C1414   1.405       .  A
C1413      H1418   1.085       .  S
C1414      C1415   1.416       .  A
C1415      C1416   1.398       .  A
C1415      N1419   1.429       .  S
C1416      H1420   1.085       .  S
N1417      O1427   1.262       .  A
N1417      O1428   1.262       .  A
N1419      O1425   1.262       .  A
N1419      O1426   1.262       .  A
C1429      C1430   1.403       .  A
C1429      C1434   1.407       .  A
C1429      H1439   1.085       .  S
C1430      C1435   1.478       .  S
C1430      C1431   1.404       .  A
C1431      C1432   1.394       .  A
C1431      N1436   1.429       .  S
C1432      C1433   1.408       .  A
C1432      H1437   1.084       .  S
C1433      C1434   1.416       .  A
C1434      N1438   1.428       .  S
C1435      C1440   1.406       .  A
C1435      C1444   1.398       .  A
N1436      O1451   1.262       .  A
N1436      O1452   1.262       .  A
N1438      O1449   1.262       .  A
N1438      O1450   1.262       .  A
C1440      C1441   1.403       .  A
C1440      N1445   1.428       .  S
C1441      C1442   1.408       .  A
C1441      H1446   1.084       .  S
C1442      C1443   1.418       .  A
C1443      C1444   1.399       .  A
C1443      N1447   1.429       .  S
C1444      H1448   1.086       .  S
N1445      O1455   1.262       .  A
N1445      O1456   1.262       .  A
N1447      O1453   1.262       .  A
N1447      O1454   1.262       .  A
C1457      C1458   1.401   1_545  A
C1457      C1462   1.398       .  A
C1457      H1467   1.085   1_556  S
C1458      C1463   1.483   1_556  S
C1458      C1459   1.411       .  A
C1459      C1460   1.399       .  A
C1459      N1464   1.430       .  S
C1460      C1461   1.405   1_565  A
C1460      H1465   1.085       .  S
C1461      C1462   1.417       .  A
C1462      N1466   1.429       .  S
C1463      C1468   1.412       .  A
C1463      C1472   1.405       .  A
N1464      O1479   1.262       .  A
N1464      O1480   1.262       .  A
N1466      O1477   1.262       .  A
N1466      O1478   1.262       .  A
C1468      C1469   1.398       .  A
C1468      N1473   1.429   1_554  S
C1469      C1470   1.402       .  A
C1469      H1474   1.085       .  S
C1470      C1471   1.410       .  A
C1471      C1472   1.401       .  A
C1471      N1475   1.429       .  S
C1472      H1476   1.085       .  S
N1473      O1483   1.262       .  A
N1473      O1484   1.262       .  A
N1475      O1481   1.262       .  A
N1475      O1482   1.262       .  A
C1485      C1486   1.404       .  A
C1485      C1490   1.408       .  A
C1485      H1495   1.085       .  S
C1486      C1491   1.484       .  S
C1486      C1487   1.406       .  A
C1487      C1488   1.398       .  A
C1487      N1492   1.429       .  S
C1488      C1489   1.409       .  A
C1488      H1493   1.084       .  S
C1489      C1490   1.418       .  A
C1490      N1494   1.428       .  S
C1491      C1496   1.411       .  A
C1491      C1500   1.399       .  A
N1492      O1507   1.262   1_565  A
N1492      O1508   1.262       .  A
N1494      O1505   1.262       .  A
N1494      O1506   1.262       .  A
C1496      C1497   1.403       .  A
C1496      N1501   1.428       .  S
C1497      C1498   1.405   1_565  A
C1497      H1502   1.085       .  S
C1498      C1499   1.419       .  A
C1499      C1500   1.401   1_545  A
C1499      N1503   1.429       .  S
C1500      H1504   1.085       .  S
N1501      O1511   1.262       .  A
N1501      O1512   1.261       .  A
N1503      O1509   1.262       .  A
N1503      O1510   1.262       .  A
C1513      C1514   1.400       .  A
C1513      C1518   1.394       .  A
C1513      H1523   1.085   1_554  S
C1514      C1519   1.484       .  S
C1514      C1515   1.411       .  A
C1515      C1516   1.405       .  A
C1515      N1520   1.428       .  S
C1516      C1517   1.405       .  A
C1516      H1521   1.085       .  S
C1517      C1518   1.413       .  A
C1518      N1522   1.430       .  S
C1519      C1524   1.409       .  A
C1519      C1528   1.405       .  A
N1520      O1535   1.262       .  A
N1520      O1536   1.262       .  A
N1522      O1533   1.262   1_554  A
N1522      O1534   1.262   1_554  A
C1524      C1525   1.395   1_554  A
C1524      N1529   1.430   1_554  S
C1525      C1526   1.406       .  A
C1525      H1530   1.085       .  S
C1526      C1527   1.414   1_556  A
C1527      C1528   1.408       .  A
C1527      N1531   1.428       .  S
C1528      H1532   1.085       .  S
N1529      O1539   1.262       .  A
N1529      O1540   1.261       .  A
N1531      O1537   1.262       .  A
N1531      O1538   1.262       .  A
C1541      C1542   1.401       .  A
C1541      C1546   1.406       .  A
C1541      H1551   1.085       .  S
C1542      C1547   1.472       .  S
C1542      C1543   1.403       .  A
C1543      C1544   1.391       .  A
C1543      N1548   1.430       .  S
C1544      C1545   1.408       .  A
C1544      H1549   1.085       .  S
C1545      C1546   1.415       .  A
C1546      N1550   1.428       .  S
C1547      C1552   1.403   1_556  A
C1547      C1556   1.401   1_455  A
N1548      O1563   1.262       .  A
N1548      O1564   1.262   1_556  A
N1550      O1561   1.261       .  A
N1550      O1562   1.262       .  A
C1552      C1553   1.394   1_455  A
C1552      N1557   1.430       .  S
C1553      C1554   1.410       .  A
C1553      H1558   1.085       .  S
C1554      C1555   1.414   1_554  A
C1555      C1556   1.402       .  A
C1555      N1559   1.428       .  S
C1556      H1560   1.085   1_655  S
N1557      O1567   1.262       .  A
N1557      O1568   1.262       .  A
N1559      O1565   1.262       .  A
N1559      O1566   1.262       .  A
C1569      C1570   1.403       .  A
C1569      C1574   1.406       .  A
C1569      H1579   1.085       .  S
C1570      C1575   1.476       .  S
C1570      C1571   1.406       .  A
C1571      C1572   1.393       .  A
C1571      N1576   1.431       .  S
C1572      C1573   1.409       .  A
C1572      H1577   1.084       .  S
C1573      C1574   1.415       .  A
C1574      N1578   1.427       .  S
C1575      C1580   1.410       .  A
C1575      C1584   1.399       .  A
N1576      O1591   1.262       .  A
N1576      O1592   1.262       .  A
N1578      O1589   1.262       .  A
N1578      O1590   1.262       .  A
C1580      C1581   1.400       .  A
C1580      N1585   1.428       .  S
C1581      C1582   1.402       .  A
C1581      H1586   1.085       .  S
C1582      C1583   1.412       .  A
C1583      C1584   1.397       .  A
C1583      N1587   1.428       .  S
C1584      H1588   1.085       .  S
N1585      O1595   1.262       .  A
N1585      O1596   1.262       .  A
N1587      O1593   1.262       .  A
N1587      O1594   1.262       .  A
C1597      C1598   1.404       .  A
C1597      C1602   1.405       .  A
C1597      H1607   1.085       .  S
C1598      C1603   1.479       .  S
C1598      C1599   1.407       .  A
C1599      C1600   1.396       .  A
C1599      N1604   1.430   1_455  S
C1600      C1601   1.407       .  A
C1600      H1605   1.085       .  S
C1601      C1602   1.413       .  A
C1602      N1606   1.428       .  S
C1603      C1608   1.411   1_455  A
C1603      C1612   1.398   1_455  A
N1604      O1619   1.262       .  A
N1604      O1620   1.262       .  A
N1606      O1617   1.262       .  A
N1606      O1618   1.262       .  A
C1608      C1609   1.403       .  A
C1608      N1613   1.429   1_655  S
C1609      C1610   1.403       .  A
C1609      H1614   1.085       .  S
C1610      C1611   1.413       .  A
C1611      C1612   1.397       .  A
C1611      N1615   1.429       .  S
C1612      H1616   1.085   1_655  S
N1613      O1623   1.262       .  A
N1613      O1624   1.262   1_455  A
N1615      O1621   1.262       .  A
N1615      O1622   1.262       .  A
C1625      C1626   1.402       .  A
C1625      C1630   1.402       .  A
C1625      H1635   1.085       .  S
C1626      C1631   1.488       .  S
C1626      C1627   1.411       .  A
C1627      C1628   1.402       .  A
C1627      N1632   1.429       .  S
C1628      C1629   1.407       .  A
C1628      H1633   1.085       .  S
C1629      C1630   1.417       .  A
C1630      N1634   1.428       .  S
C1631      C1636   1.413       .  A
C1631      C1640   1.401       .  A
N1632      O1647   1.262       .  A
N1632      O1648   1.262       .  A
N1634      O1645   1.262       .  A
N1634      O1646   1.262       .  A
C1636      C1637   1.405       .  A
C1636      N1641   1.428       .  S
C1637      C1638   1.405       .  A
C1637      H1642   1.085       .  S
C1638      C1639   1.415       .  A
C1639      C1640   1.398       .  A
C1639      N1643   1.429       .  S
C1640      H1644   1.085       .  S
N1641      O1651   1.262       .  A
N1641      O1652   1.262       .  A
N1643      O1649   1.262       .  A
N1643      O1650   1.262       .  A
C1653      C1654   1.404       .  A
C1653      C1658   1.405       .  A
C1653      H1663   1.085       .  S
C1654      C1659   1.479       .  S
C1654      C1655   1.406       .  A
C1655      C1656   1.393       .  A
C1655      N1660   1.429       .  S
C1656      C1657   1.405       .  A
C1656      H1661   1.085       .  S
C1657      C1658   1.415       .  A
C1658      N1662   1.428       .  S
C1659      C1664   1.405       .  A
C1659      C1668   1.403       .  A
N1660      O1675   1.262       .  A
N1660      O1676   1.262       .  A
N1662      O1673   1.262       .  A
N1662      O1674   1.262       .  A
C1664      C1665   1.394       .  A
C1664      N1669   1.429       .  S
C1665      C1666   1.407       .  A
C1665      H1670   1.085       .  S
C1666      C1667   1.416       .  A
C1667      C1668   1.404       .  A
C1667      N1671   1.428       .  S
C1668      H1672   1.085       .  S
N1669      O1679   1.262       .  A
N1669      O1680   1.262       .  A
N1671      O1677   1.262       .  A
N1671      O1678   1.262       .  A
C1681      C1682   1.406       .  A
C1681      C1686   1.402       .  A
C1681      H1691   1.085       .  S
C1682      C1687   1.484       .  S
C1682      C1683   1.411       .  A
C1683      C1684   1.397       .  A
C1683      N1688   1.429       .  S
C1684      C1685   1.403       .  A
C1684      H1689   1.085       .  S
C1685      C1686   1.411       .  A
C1686      N1690   1.429       .  S
C1687      C1692   1.411       .  A
C1687      C1696   1.399       .  A
N1688      O1703   1.262       .  A
N1688      O1704   1.262       .  A
N1690      O1701   1.262       .  A
N1690      O1702   1.262       .  A
C1692      C1693   1.405       .  A
C1692      N1697   1.429       .  S
C1693      C1694   1.407       .  A
C1693      H1698   1.084       .  S
C1694      C1695   1.417       .  A
C1695      C1696   1.394       .  A
C1695      N1699   1.430       .  S
C1696      H1700   1.085       .  S
N1697      O1707   1.262       .  A
N1697      O1708   1.262       .  A
N1699      O1705   1.262       .  A
N1699      O1706   1.262       .  A
C1709      C1710   1.404       .  A
C1709      C1714   1.404       .  A
C1709      H1719   1.085       .  S
C1710      C1715   1.481       .  S
C1710      C1711   1.406       .  A
C1711      C1712   1.394       .  A
C1711      N1716   1.429       .  S
C1712      C1713   1.405       .  A
C1712      H1717   1.085       .  S
C1713      C1714   1.415       .  A
C1714      N1718   1.428       .  S
C1715      C1720   1.407       .  A
C1715      C1724   1.404       .  A
N1716      O1731   1.262       .  A
N1716      O1732   1.262       .  A
N1718      O1729   1.262       .  A
N1718      O1730   1.262       .  A
C1720      C1721   1.393       .  A
C1720      N1725   1.429       .  S
C1721      C1722   1.407       .  A
C1721      H1726   1.085       .  S
C1722      C1723   1.414       .  A
C1723      C1724   1.404       .  A
C1723      N1727   1.428       .  S
C1724      H1728   1.085       .  S
N1725      O1735   1.262       .  A
N1725      O1736   1.262       .  A
N1727      O1733   1.262       .  A
N1727      O1734   1.262       .  A
C1737      C1738   1.407       .  A
C1737      C1742   1.407       .  A
C1737      H1747   1.085       .  S
C1738      C1743   1.491       .  S
C1738      C1739   1.408       .  A
C1739      C1740   1.396       .  A
C1739      N1744   1.430       .  S
C1740      C1741   1.409       .  A
C1740      H1745   1.085       .  S
C1741      C1742   1.414       .  A
C1742      N1746   1.428       .  S
C1743      C1748   1.413       .  A
C1743      C1752   1.407       .  A
N1744      O1759   1.262       .  A
N1744      O1760   1.262       .  A
N1746      O1757   1.262       .  A
N1746      O1758   1.262       .  A
C1748      C1749   1.400       .  A
C1748      N1753   1.429       .  S
C1749      C1750   1.401       .  A
C1749      H1754   1.086       .  S
C1750      C1751   1.408       .  A
C1751      C1752   1.402       .  A
C1751      N1755   1.429       .  S
C1752      H1756   1.084       .  S
N1753      O1763   1.262       .  A
N1753      O1764   1.262       .  A
N1755      O1761   1.262       .  A
N1755      O1762   1.262       .  A
C1765      C1766   1.405       .  A
C1765      C1770   1.405       .  A
C1765      H1775   1.084       .  S
C1766      C1771   1.490       .  S
C1766      C1767   1.412       .  A
C1767      C1768   1.396       .  A
C1767      N1772   1.429       .  S
C1768      C1769   1.403       .  A
C1768      H1773   1.085       .  S
C1769      C1770   1.413       .  A
C1770      N1774   1.428       .  S
C1771      C1776   1.412       .  A
C1771      C1780   1.407       .  A
N1772      O1787   1.262       .  A
N1772      O1788   1.262       .  A
N1774      O1785   1.262       .  A
N1774      O1786   1.262       .  A
C1776      C1777   1.400       .  A
C1776      N1781   1.429       .  S
C1777      C1778   1.401       .  A
C1777      H1782   1.085       .  S
C1778      C1779   1.407       .  A
C1779      C1780   1.402       .  A
C1779      N1783   1.429       .  S
C1780      H1784   1.084       .  S
N1781      O1791   1.262       .  A
N1781      O1792   1.262       .  A
N1783      O1789   1.262       .  A
N1783      O1790   1.262       .  A
C1793      C1794   1.400       .  A
C1793      C1798   1.398       .  A
C1793      H1803   1.085       .  S
C1794      C1799   1.486       .  S
C1794      C1795   1.412       .  A
C1795      C1796   1.405       .  A
C1795      N1800   1.428       .  S
C1796      C1797   1.405       .  A
C1796      H1801   1.084       .  S
C1797      C1798   1.416       .  A
C1798      N1802   1.429       .  S
C1799      C1804   1.409       .  A
C1799      C1808   1.405       .  A
N1800      O1815   1.262       .  A
N1800      O1816   1.262       .  A
N1802      O1813   1.262       .  A
N1802      O1814   1.262       .  A
C1804      C1805   1.399       .  A
C1804      N1809   1.429       .  S
C1805      C1806   1.408       .  A
C1805      H1810   1.085       .  S
C1806      C1807   1.415       .  A
C1807      C1808   1.405       .  A
C1807      N1811   1.428       .  S
C1808      H1812   1.085       .  S
N1809      O1819   1.262       .  A
N1809      O1820   1.262       .  A
N1811      O1817   1.262       .  A
N1811      O1818   1.262       .  A
C1821      C1822   1.403       .  A
C1821      C1826   1.406       .  A
C1821      H1831   1.084       .  S
C1822      C1827   1.474       .  S
C1822      C1823   1.405       .  A
C1823      C1824   1.391       .  A
C1823      N1828   1.429       .  S
C1824      C1825   1.403       .  A
C1824      H1829   1.085       .  S
C1825      C1826   1.412       .  A
C1826      N1830   1.428       .  S
C1827      C1832   1.406       .  A
C1827      C1836   1.401       .  A
N1828      O1843   1.262       .  A
N1828      O1844   1.262       .  A
N1830      O1841   1.262       .  A
N1830      O1842   1.262       .  A
C1832      C1833   1.405       .  A
C1832      N1837   1.430       .  S
C1833      C1834   1.407       .  A
C1833      H1838   1.059       .  S
C1834      C1835   1.408       .  A
C1835      C1836   1.401       .  A
C1835      N1839   1.428       .  S
C1836      H1840   1.074       .  S
N1837      O1847   1.262       .  A
N1837      O1848   1.262       .  A
N1839      O1845   1.262       .  A
N1839      O1846   1.261       .  A
C1849      C1850   1.402       .  A
C1849      C1854   1.401       .  A
C1849      H1859   1.085       .  S
C1850      C1855   1.485       .  S
C1850      C1851   1.411       .  A
C1851      C1852   1.403       .  A
C1851      N1856   1.428       .  S
C1852      C1853   1.404       .  A
C1852      H1857   1.085       .  S
C1853      C1854   1.415       .  A
C1854      N1858   1.430       .  S
C1855      C1860   1.412       .  A
C1855      C1864   1.400       .  A
N1856      O1871   1.262       .  A
N1856      O1872   1.262       .  A
N1858      O1869   1.262       .  A
N1858      O1870   1.262       .  A
C1860      C1861   1.407       .  A
C1860      N1865   1.428       .  S
C1861      C1862   1.404       .  A
C1861      H1866   1.085       .  S
C1862      C1863   1.414       .  A
C1863      C1864   1.397       .  A
C1863      N1867   1.430       .  S
C1864      H1868   1.086       .  S
N1865      O1875   1.262       .  A
N1865      O1876   1.261       .  A
N1867      O1873   1.262       .  A
N1867      O1874   1.262       .  A
C1877      C1878   1.398       .  A
C1877      C1882   1.396       .  A
C1877      H1887   1.086       .  S
C1878      C1883   1.479       .  S
C1878      C1879   1.408       .  A
C1879      C1880   1.402       .  A
C1879      N1884   1.427       .  S
C1880      C1881   1.406       .  A
C1880      H1885   1.084       .  S
C1881      C1882   1.421       .  A
C1882      N1886   1.430       .  S
C1883      C1888   1.408       .  A
C1883      C1892   1.404       .  A
N1884      O1899   1.262       .  A
N1884      O1900   1.261       .  A
N1886      O1897   1.262       .  A
N1886      O1898   1.262       .  A
C1888      C1889   1.397       .  A
C1888      N1893   1.428       .  S
C1889      C1890   1.403       .  A
C1889      H1894   1.085       .  S
C1890      C1891   1.413       .  A
C1891      C1892   1.403       .  A
C1891      N1895   1.429       .  S
C1892      H1896   1.085       .  S
N1893      O1903   1.262       .  A
N1893      O1904   1.262       .  A
N1895      O1901   1.262       .  A
N1895      O1902   1.262       .  A
C1905      C1906   1.405       .  A
C1905      C1910   1.408       .  A
C1905      H1915   1.085       .  S
C1906      C1911   1.478       .  S
C1906      C1907   1.404       .  A
C1907      C1908   1.392       .  A
C1907      N1912   1.429       .  S
C1908      C1909   1.407       .  A
C1908      H1913   1.085       .  S
C1909      C1910   1.414       .  A
C1910      N1914   1.428       .  S
C1911      C1916   1.411       .  A
C1911      C1920   1.397       .  A
N1912      O1927   1.262       .  A
N1912      O1928   1.262       .  A
N1914      O1925   1.262       .  A
N1914      O1926   1.262       .  A
C1916      C1917   1.403       .  A
C1916      N1921   1.428       .  S
C1917      C1918   1.403       .  A
C1917      H1922   1.085       .  S
C1918      C1919   1.416       .  A
C1919      C1920   1.397       .  A
C1919      N1923   1.430       .  S
C1920      H1924   1.085       .  S
N1921      O1931   1.262       .  A
N1921      O1932   1.262       .  A
N1923      O1929   1.262       .  A
N1923      O1930   1.262       .  A
C1933      C1934   1.399       .  A
C1933      C1938   1.395       .  A
C1933      H1943   1.085       .  S
C1934      C1939   1.484       .  S
C1934      C1935   1.412       .  A
C1935      C1936   1.402       .  A
C1935      N1940   1.429       .  S
C1936      C1937   1.406       .  A
C1936      H1941   1.085       .  S
C1937      C1938   1.419       .  A
C1938      N1942   1.429       .  S
C1939      C1944   1.415       .  A
C1939      C1948   1.402       .  A
N1940      O1955   1.262       .  A
N1940      O1956   1.262       .  A
N1942      O1953   1.262       .  A
N1942      O1954   1.262       .  A
C1944      C1945   1.401       .  A
C1944      N1949   1.429       .  S
C1945      C1946   1.400       .  A
C1945      H1950   1.086       .  S
C1946      C1947   1.411       .  A
C1947      C1948   1.398       .  A
C1947      N1951   1.429       .  S
C1948      H1952   1.085       .  S
N1949      O1959   1.262       .  A
N1949      O1960   1.261       .  A
N1951      O1957   1.262       .  A
N1951      O1958   1.262       .  A
C1961      C1962   1.402       .  A
C1961      C1966   1.399       .  A
C1961      H1971   1.085       .  S
C1962      C1967   1.483       .  S
C1962      C1963   1.413       .  A
C1963      C1964   1.400       .  A
C1963      N1968   1.429       .  S
C1964      C1965   1.401       .  A
C1964      H1969   1.086       .  S
C1965      C1966   1.412       .  A
C1966      N1970   1.429       .  S
C1967      C1972   1.410       .  A
C1967      C1976   1.399       .  A
N1968      O1983   1.262       .  A
N1968      O1984   1.261       .  A
N1970      O1981   1.262       .  A
N1970      O1982   1.262       .  A
C1972      C1973   1.402       .  A
C1972      N1977   1.428       .  S
C1973      C1974   1.406       .  A
C1973      H1978   1.085       .  S
C1974      C1975   1.419       .  A
C1975      C1976   1.397       .  A
C1975      N1979   1.429       .  S
C1976      H1980   1.086       .  S
N1977      O1987   1.262       .  A
N1977      O1988   1.262       .  A
N1979      O1985   1.262       .  A
N1979      O1986   1.262       .  A
C1989      C1990   1.405       .  A
C1989      C1994   1.410       .  A
C1989      H1999   1.085       .  S
C1990      C1995   1.482       .  S
C1990      C1991   1.405       .  A
C1991      C1992   1.395       .  A
C1991      N1996   1.430       .  S
C1992      C1993   1.409       .  A
C1992      H1997   1.084       .  S
C1993      C1994   1.417       .  A
C1994      N1998   1.428       .  S
C1995      C2000   1.411       .  A
C1995      C2004   1.397       .  A
N1996      O2011   1.262       .  A
N1996      O2012   1.262       .  A
N1998      O2009   1.262       .  A
N1998      O2010   1.262       .  A
C2000      C2001   1.406       .  A
C2000      N2005   1.428       .  S
C2001      C2002   1.406       .  A
C2001      H2006   1.085       .  S
C2002      C2003   1.418       .  A
C2003      C2004   1.397       .  A
C2003      N2007   1.429       .  S
C2004      H2008   1.085       .  S
N2005      O2015   1.262       .  A
N2005      O2016   1.261       .  A
N2007      O2013   1.262       .  A
N2007      O2014   1.262       .  A
C2017      C2018   1.402       .  A
C2017      C2022   1.401       .  A
C2017      H2027   1.085       .  S
C2018      C2023   1.491       .  S
C2018      C2019   1.414       .  A
C2019      C2020   1.403       .  A
C2019      N2024   1.429       .  S
C2020      C2021   1.404       .  A
C2020      H2025   1.085       .  S
C2021      C2022   1.416       .  A
C2022      N2026   1.429       .  S
C2023      C2028   1.414       .  A
C2023      C2032   1.401       .  A
N2024      O2039   1.262       .  A
N2024      O2040   1.262       .  A
N2026      O2037   1.262       .  A
N2026      O2038   1.262       .  A
C2028      C2029   1.406       .  A
C2028      N2033   1.428       .  S
C2029      C2030   1.404       .  A
C2029      H2034   1.085       .  S
C2030      C2031   1.417       .  A
C2031      C2032   1.399       .  A
C2031      N2035   1.429       .  S
C2032      H2036   1.085       .  S
N2033      O2043   1.262       .  A
N2033      O2044   1.262       .  A
N2035      O2041   1.262       .  A
N2035      O2042   1.262       .  A
C2045      C2046   1.405       .  A
C2045      C2050   1.407       .  A
C2045      H2055   1.085       .  S
C2046      C2051   1.483       .  S
C2046      C2047   1.405       .  A
C2047      C2048   1.394   1_565  A
C2047      N2052   1.429       .  S
C2048      C2049   1.408       .  A
C2048      H2053   1.085       .  S
C2049      C2050   1.415   1_545  A
C2050      N2054   1.428       .  S
C2051      C2056   1.406       .  A
C2051      C2060   1.405       .  A
N2052      O2067   1.262       .  A
N2052      O2068   1.262   1_565  A
N2054      O2065   1.262       .  A
N2054      O2066   1.262       .  A
C2056      C2057   1.396       .  A
C2056      N2061   1.429       .  S
C2057      C2058   1.408       .  A
C2057      H2062   1.085       .  S
C2058      C2059   1.414       .  A
C2059      C2060   1.406       .  A
C2059      N2063   1.428       .  S
C2060      H2064   1.085       .  S
N2061      O2071   1.262       .  A
N2061      O2072   1.262   1_565  A
N2063      O2069   1.262       .  A
N2063      O2070   1.262       .  A
C2073      C2074   1.405       .  A
C2073      C2078   1.407       .  A
C2073      H2083   1.085       .  S
C2074      C2079   1.483       .  S
C2074      C2075   1.407       .  A
C2075      C2076   1.396       .  A
C2075      N2080   1.430       .  S
C2076      C2077   1.408       .  A
C2076      H2081   1.084       .  S
C2077      C2078   1.416       .  A
C2078      N2082   1.428   1_565  S
C2079      C2084   1.410       .  A
C2079      C2088   1.398       .  A
N2080      O2095   1.262       .  A
N2080      O2096   1.262       .  A
N2082      O2093   1.262       .  A
N2082      O2094   1.262   1_545  A
C2084      C2085   1.404       .  A
C2084      N2089   1.428       .  S
C2085      C2086   1.406       .  A
C2085      H2090   1.084       .  S
C2086      C2087   1.419       .  A
C2087      C2088   1.398       .  A
C2087      N2091   1.429       .  S
C2088      H2092   1.085       .  S
N2089      O2099   1.262       .  A
N2089      O2100   1.261       .  A
N2091      O2097   1.262       .  A
N2091      O2098   1.262       .  A
C2101      C2102   1.403       .  A
C2101      C2106   1.402       .  A
C2101      H2111   1.084       .  S
C2102      C2107   1.489       .  S
C2102      C2103   1.415       .  A
C2103      C2104   1.399       .  A
C2103      N2108   1.429       .  S
C2104      C2105   1.400       .  A
C2104      H2109   1.085       .  S
C2105      C2106   1.413       .  A
C2106      N2110   1.429       .  S
C2107      C2112   1.414       .  A
C2107      C2116   1.399       .  A
N2108      O2123   1.262       .  A
N2108      O2124   1.262       .  A
N2110      O2121   1.262       .  A
N2110      O2122   1.262       .  A
C2112      C2113   1.405       .  A
C2112      N2117   1.429       .  S
C2113      C2114   1.406       .  A
C2113      H2118   1.085       .  S
C2114      C2115   1.418       .  A
C2115      C2116   1.396       .  A
C2115      N2119   1.429       .  S
C2116      H2120   1.085       .  S
N2117      O2127   1.262       .  A
N2117      O2128   1.262       .  A
N2119      O2125   1.262       .  A
N2119      O2126   1.262       .  A
C2129      C2130   1.403       .  A
C2129      C2134   1.401       .  A
C2129      H2139   1.085       .  S
C2130      C2135   1.486       .  S
C2130      C2131   1.414       .  A
C2131      C2132   1.401       .  A
C2131      N2136   1.429       .  S
C2132      C2133   1.399       .  A
C2132      H2137   1.086       .  S
C2133      C2134   1.410       .  A
C2134      N2138   1.429       .  S
C2135      C2140   1.412       .  A
C2135      C2144   1.400       .  A
N2136      O2151   1.262       .  A
N2136      O2152   1.261       .  A
N2138      O2149   1.262       .  A
N2138      O2150   1.262       .  A
C2140      C2141   1.404       .  A
C2140      N2145   1.428       .  S
C2141      C2142   1.406       .  A
C2141      H2146   1.085       .  S
C2142      C2143   1.418       .  A
C2143      C2144   1.396       .  A
C2143      N2147   1.430       .  S
C2144      H2148   1.085       .  S
N2145      O2155   1.262       .  A
N2145      O2156   1.262       .  A
N2147      O2153   1.262       .  A
N2147      O2154   1.262       .  A
C2157      C2158   1.399       .  A
C2157      C2162   1.402       .  A
C2157      H2167   1.085       .  S
C2158      C2163   1.489       .  S
C2158      C2159   1.411       .  A
C2159      C2160   1.409       .  A
C2159      N2164   1.427       .  S
C2160      C2161   1.406       .  A
C2160      H2165   1.084       .  S
C2161      C2162   1.419       .  A
C2162      N2166   1.429       .  S
C2163      C2168   1.405       .  A
C2163      C2172   1.405       .  A
N2164      O2179   1.262       .  A
N2164      O2180   1.262       .  A
N2166      O2177   1.262       .  A
N2166      O2178   1.262       .  A
C2168      C2169   1.397       .  A
C2168      N2173   1.429       .  S
C2169      C2170   1.410       .  A
C2169      H2174   1.084       .  S
C2170      C2171   1.418       .  A
C2171      C2172   1.413       .  A
C2171      N2175   1.428       .  S
C2172      H2176   1.085       .  S
N2173      O2183   1.262       .  A
N2173      O2184   1.261       .  A
N2175      O2181   1.262       .  A
N2175      O2182   1.262       .  A
C2185      C2186   1.404   1_556  A
C2185      C2190   1.405       .  A
C2185      H2195   1.085   1_655  S
C2186      C2191   1.483       .  S
C2186      C2187   1.407       .  A
C2187      C2188   1.400   1_554  A
C2187      N2192   1.429       .  S
C2188      C2189   1.407       .  A
C2188      H2193   1.085       .  S
C2189      C2190   1.411       .  A
C2190      N2194   1.428       .  S
C2191      C2196   1.410       .  A
C2191      C2200   1.401   1_655  A
N2192      O2207   1.262       .  A
N2192      O2208   1.261       .  A
N2194      O2205   1.262   1_655  A
N2194      O2206   1.262   1_655  A
C2196      C2197   1.404   1_655  A
C2196      N2201   1.429       .  S
C2197      C2198   1.405       .  A
C2197      H2202   1.085       .  S
C2198      C2199   1.412       .  A
C2199      C2200   1.402       .  A
C2199      N2203   1.428       .  S
C2200      H2204   1.085   1_554  S
N2201      O2211   1.262       .  A
N2201      O2212   1.262       .  A
N2203      O2209   1.262       .  A
N2203      O2210   1.262       .  A
C2213      C2214   1.401       .  A
C2213      C2218   1.396       .  A
C2213      H2223   1.085       .  S
C2214      C2219   1.489       .  S
C2214      C2215   1.416       .  A
C2215      C2216   1.404       .  A
C2215      N2220   1.429       .  S
C2216      C2217   1.402       .  A
C2216      H2221   1.086       .  S
C2217      C2218   1.411       .  A
C2218      N2222   1.428       .  S
C2219      C2224   1.414       .  A
C2219      C2228   1.401   1_556  A
N2220      O2235   1.262       .  A
N2220      O2236   1.262       .  A
N2222      O2233   1.261       .  A
N2222      O2234   1.262       .  A
C2224      C2225   1.404       .  A
C2224      N2229   1.430       .  S
C2225      C2226   1.406   1_556  A
C2225      H2230   1.085       .  S
C2226      C2227   1.417       .  A
C2227      C2228   1.398       .  A
C2227      N2231   1.429       .  S
C2228      H2232   1.085       .  S
N2229      O2239   1.262       .  A
N2229      O2240   1.262       .  A
N2231      O2237   1.262       .  A
N2231      O2238   1.262       .  A
C2241      C2242   1.405       .  A
C2241      C2246   1.406       .  A
C2241      H2251   1.085       .  S
C2242      C2247   1.489       .  S
C2242      C2243   1.406       .  A
C2243      C2244   1.399       .  A
C2243      N2248   1.429       .  S
C2244      C2245   1.410       .  A
C2244      H2249   1.085       .  S
C2245      C2246   1.416       .  A
C2246      N2250   1.428       .  S
C2247      C2252   1.408       .  A
C2247      C2256   1.408       .  A
N2248      O2263   1.262       .  A
N2248      O2264   1.262       .  A
N2250      O2261   1.261       .  A
N2250      O2262   1.261       .  A
C2252      C2253   1.397       .  A
C2252      N2257   1.428       .  S
C2253      C2254   1.403       .  A
C2253      H2258   1.086       .  S
C2254      C2255   1.411       .  A
C2255      C2256   1.408       .  A
C2255      N2259   1.428       .  S
C2256      H2260   1.085       .  S
N2257      O2267   1.262       .  A
N2257      O2268   1.262       .  A
N2259      O2265   1.262       .  A
N2259      O2266   1.262       .  A
C2269      C2270   1.400       .  A
C2269      C2274   1.399   1_655  A
C2269      H2279   1.084       .  S
C2270      C2275   1.490       .  S
C2270      C2271   1.415       .  A
C2271      C2272   1.403       .  A
C2271      N2276   1.429       .  S
C2272      C2273   1.404   1_655  A
C2272      H2277   1.085       .  S
C2273      C2274   1.417       .  A
C2274      N2278   1.429       .  S
C2275      C2280   1.414       .  A
C2275      C2284   1.401       .  A
N2276      O2291   1.262       .  A
N2276      O2292   1.262       .  A
N2278      O2289   1.261   1_556  A
N2278      O2290   1.262       .  A
C2280      C2281   1.403       .  A
C2280      N2285   1.429       .  S
C2281      C2282   1.406       .  A
C2281      H2286   1.085       .  S
C2282      C2283   1.417       .  A
C2283      C2284   1.398       .  A
C2283      N2287   1.429       .  S
C2284      H2288   1.085       .  S
N2285      O2295   1.262       .  A
N2285      O2296   1.262       .  A
N2287      O2293   1.262       .  A
N2287      O2294   1.262       .  A
C2297      C2298   1.404       .  A
C2297      C2302   1.403       .  A
C2297      H2307   1.085       .  S
C2298      C2303   1.491       .  S
C2298      C2299   1.413       .  A
C2299      C2300   1.402   1_554  A
C2299      N2304   1.429       .  S
C2300      C2301   1.403   1_655  A
C2300      H2305   1.086   1_655  S
C2301      C2302   1.409   1_456  A
C2302      N2306   1.426       .  S
C2303      C2308   1.415       .  A
C2303      C2312   1.403       .  A
N2304      O2319   1.262   1_554  A
N2304      O2320   1.262       .  A
N2306      O2317   1.262   1_655  A
N2306      O2318   1.262       .  A
C2308      C2309   1.406       .  A
C2308      N2313   1.428       .  S
C2309      C2310   1.401       .  A
C2309      H2314   1.085       .  S
C2310      C2311   1.411       .  A
C2311      C2312   1.399       .  A
C2311      N2315   1.430       .  S
C2312      H2316   1.085   1_554  S
N2313      O2323   1.262       .  A
N2313      O2324   1.261       .  A
N2315      O2321   1.262   1_554  A
N2315      O2322   1.262       .  A
C2325      C2326   1.403       .  A
C2325      C2330   1.407       .  A
C2325      H2335   1.085       .  S
C2326      C2331   1.477       .  S
C2326      C2327   1.404       .  A
C2327      C2328   1.393       .  A
C2327      N2332   1.429       .  S
C2328      C2329   1.408       .  A
C2328      H2333   1.084       .  S
C2329      C2330   1.415       .  A
C2330      N2334   1.428       .  S
C2331      C2336   1.408       .  A
C2331      C2340   1.398       .  A
N2332      O2347   1.262       .  A
N2332      O2348   1.262       .  A
N2334      O2345   1.262       .  A
N2334      O2346   1.262       .  A
C2336      C2337   1.404       .  A
C2336      N2341   1.428       .  S
C2337      C2338   1.404       .  A
C2337      H2342   1.085       .  S
C2338      C2339   1.415       .  A
C2339      C2340   1.397       .  A
C2339      N2343   1.430       .  S
C2340      H2344   1.085       .  S
N2341      O2351   1.262       .  A
N2341      O2352   1.262       .  A
N2343      O2349   1.262       .  A
N2343      O2350   1.262       .  A
C2353      C2354   1.405       .  A
C2353      C2358   1.406       .  A
C2353      H2363   1.085       .  S
C2354      C2359   1.489       .  S
C2354      C2355   1.408       .  A
C2355      C2356   1.397       .  A
C2355      N2360   1.429       .  S
C2356      C2357   1.408       .  A
C2356      H2361   1.085       .  S
C2357      C2358   1.415       .  A
C2358      N2362   1.428       .  S
C2359      C2364   1.409       .  A
C2359      C2368   1.405       .  A
N2360      O2375   1.262       .  A
N2360      O2376   1.262       .  A
N2362      O2373   1.262       .  A
N2362      O2374   1.262       .  A
C2364      C2365   1.398       .  A
C2364      N2369   1.429       .  S
C2365      C2366   1.405       .  A
C2365      H2370   1.085       .  S
C2366      C2367   1.413       .  A
C2367      C2368   1.406       .  A
C2367      N2371   1.427       .  S
C2368      H2372   1.085       .  S
N2369      O2379   1.262       .  A
N2369      O2380   1.262       .  A
N2371      O2377   1.262       .  A
N2371      O2378   1.261       .  A
C2381      C2382   1.400   1_545  A
C2381      C2386   1.401       .  A
C2381      H2391   1.085       .  S
C2382      C2387   1.486       .  S
C2382      C2383   1.412       .  A
C2383      C2384   1.404       .  A
C2383      N2388   1.429       .  S
C2384      C2385   1.404   1_565  A
C2384      H2389   1.085       .  S
C2385      C2386   1.416       .  A
C2386      N2390   1.429       .  S
C2387      C2392   1.407       .  A
C2387      C2396   1.406       .  A
N2388      O2403   1.262       .  A
N2388      O2404   1.262       .  A
N2390      O2401   1.262       .  A
N2390      O2402   1.262       .  A
C2392      C2393   1.397       .  A
C2392      N2397   1.429       .  S
C2393      C2394   1.408       .  A
C2393      H2398   1.085       .  S
C2394      C2395   1.412       .  A
C2395      C2396   1.407       .  A
C2395      N2399   1.428       .  S
C2396      H2400   1.085   1_565  S
N2397      O2407   1.262       .  A
N2397      O2408   1.262       .  A
N2399      O2405   1.262   1_565  A
N2399      O2406   1.262   1_565  A
C2409      C2410   1.398       .  A
C2409      C2414   1.396       .  A
C2409      H2419   1.085       .  S
C2410      C2415   1.472       .  S
C2410      C2411   1.408       .  A
C2411      C2412   1.400       .  A
C2411      N2416   1.428       .  S
C2412      C2413   1.402       .  A
C2412      H2417   1.085       .  S
C2413      C2414   1.412       .  A
C2414      N2418   1.429       .  S
C2415      C2420   1.404       .  A
C2415      C2424   1.401       .  A
N2416      O2431   1.262       .  A
N2416      O2432   1.262       .  A
N2418      O2429   1.262       .  A
N2418      O2430   1.262       .  A
C2420      C2421   1.392       .  A
C2420      N2425   1.430       .  S
C2421      C2422   1.407       .  A
C2421      H2426   1.085       .  S
C2422      C2423   1.416       .  A
C2423      C2424   1.405       .  A
C2423      N2427   1.428       .  S
C2424      H2428   1.085       .  S
N2425      O2435   1.262       .  A
N2425      O2436   1.261       .  A
N2427      O2433   1.262       .  A
N2427      O2434   1.262       .  A
C2437      C2438   1.402       .  A
C2437      C2442   1.404       .  A
C2437      H2447   1.085       .  S
C2438      C2443   1.472   1_545  S
C2438      C2439   1.404   1_545  A
C2439      C2440   1.393   1_565  A
C2439      N2444   1.429       .  S
C2440      C2441   1.407       .  A
C2440      H2445   1.085   1_545  S
C2441      C2442   1.414       .  A
C2442      N2446   1.428       .  S
C2443      C2448   1.408       .  A
C2443      C2452   1.396       .  A
N2444      O2459   1.262       .  A
N2444      O2460   1.262       .  A
N2446      O2457   1.262       .  A
N2446      O2458   1.262       .  A
C2448      C2449   1.402       .  A
C2448      N2453   1.428   1_565  S
C2449      C2450   1.405       .  A
C2449      H2454   1.085       .  S
C2450      C2451   1.416       .  A
C2451      C2452   1.395       .  A
C2451      N2455   1.429       .  S
C2452      H2456   1.086       .  S
N2453      O2463   1.262       .  A
N2453      O2464   1.262   1_545  A
N2455      O2461   1.262       .  A
N2455      O2462   1.262       .  A
C2465      C2466   1.401   1_565  A
C2465      C2470   1.401       .  A
C2465      H2475   1.085   1_565  S
C2466      C2471   1.478       .  S
C2466      C2467   1.409   1_545  A
C2467      C2468   1.402       .  A
C2467      N2472   1.428   1_565  S
C2468      C2469   1.403       .  A
C2468      H2473   1.085       .  S
C2469      C2470   1.415       .  A
C2470      N2474   1.430       .  S
C2471      C2476   1.409       .  A
C2471      C2480   1.397       .  A
N2472      O2487   1.262       .  A
N2472      O2488   1.261   1_545  A
N2474      O2485   1.262       .  A
N2474      O2486   1.262       .  A
C2476      C2477   1.407       .  A
C2476      N2481   1.428       .  S
C2477      C2478   1.407       .  A
C2477      H2482   1.085       .  S
C2478      C2479   1.416       .  A
C2479      C2480   1.394       .  A
C2479      N2483   1.429       .  S
C2480      H2484   1.086       .  S
N2481      O2491   1.262       .  A
N2481      O2492   1.262       .  A
N2483      O2489   1.262       .  A
N2483      O2490   1.262       .  A
C2493      C2494   1.407       .  A
C2493      C2498   1.404       .  A
C2493      H2503   1.084       .  S
C2494      C2499   1.490       .  S
C2494      C2495   1.411       .  A
C2495      C2496   1.396       .  A
C2495      N2500   1.429       .  S
C2496      C2497   1.404       .  A
C2496      H2501   1.085       .  S
C2497      C2498   1.411       .  A
C2498      N2502   1.428       .  S
C2499      C2504   1.410       .  A
C2499      C2508   1.405       .  A
N2500      O2515   1.262       .  A
N2500      O2516   1.262       .  A
N2502      O2513   1.262       .  A
N2502      O2514   1.262       .  A
C2504      C2505   1.398       .  A
C2504      N2509   1.429       .  S
C2505      C2506   1.406       .  A
C2505      H2510   1.085       .  S
C2506      C2507   1.415       .  A
C2507      C2508   1.403       .  A
C2507      N2511   1.429       .  S
C2508      H2512   1.085       .  S
N2509      O2519   1.262       .  A
N2509      O2520   1.262       .  A
N2511      O2517   1.262       .  A
N2511      O2518   1.262       .  A
