geometry optimzed in LAMMPS
_audit_creation_date              2020-12-01 
_audit_creation_method            'lammps2cif' 
_symmetry_space_group_name_H-M    'P1' 
_symmetry_Int_Tables_number       1 
_symmetry_cell_setting            triclinic 
loop_ 
_symmetry_equiv_pos_as_xyz 
  x,y,z 
_cell_length_a                    42.54236493 
_cell_length_b                    42.75889373688537 
_cell_length_c                    62.26893417003199 
_cell_angle_alpha                 89.74139119018426 
_cell_angle_beta                  89.9352324443185 
_cell_angle_gamma                 120.28360530701174 
loop_ 
_atom_site_label 
_atom_site_type_symbol 
_atom_site_fract_x 
_atom_site_fract_y 
_atom_site_fract_z 
_atom_site_charge 
O1          O  0.02260846  0.34047276  0.25959866    -0.71700
O2          O  0.01817147  0.42660798  0.24652883    -0.71900
O3          O  0.03339990  0.40021157  0.28170532    -0.71700
O4          O  0.01189727  0.37023668  0.22453299    -0.71700
O5          O  0.45520463  0.35527118  0.22838562    -0.71700
O6          O  0.47647479  0.38188050  0.28844015    -0.71700
O7          O  0.46023855  0.40807745  0.25356858    -0.71700
O8          O  0.46681423  0.32574987  0.26376166    -0.71800
V9          V  0.02046097  0.38374531  0.25336071     1.35200
V10         V  0.46583543  0.36823656  0.25844821     1.35200
C11         C  0.99316959  0.31122068  0.26416928     0.77600
C12         C  0.98789769  0.42564784  0.24869105     0.77600
C13         C  0.00933439  0.39135527  0.29590725     0.77500
C14         C  0.48156630  0.36808754  0.21494099     0.77500
O15         O  0.12921437  0.43862507  0.41786563    -0.71700
O16         O  0.03238575  0.42467516  0.42564188    -0.71900
O17         O  0.07103507  0.42249258  0.39226434    -0.71700
O18         O  0.08768367  0.43601132  0.45136281    -0.71700
O19         O  0.11233302  0.49420206  0.44796802    -0.71700
O20         O  0.08893709  0.47922725  0.38719552    -0.71700
O21         O  0.05705741  0.48306181  0.42316276    -0.71700
O22         O  0.14854240  0.49554985  0.41197199    -0.71800
V23         V  0.08071350  0.43153828  0.42162498     1.35200
V24         V  0.10159526  0.48691167  0.41753270     1.35200
C25         C  0.15563055  0.47057766  0.41409261     0.77600
C26         C  0.02921835  0.45280199  0.42613477     0.77600
C27         C  0.07353381  0.44694317  0.37989660     0.77500
C28         C  0.10126862  0.46642544  0.46012199     0.77500
O29         O  0.44218423  0.14918400  0.25799730    -0.71700
O30         O  0.44742650  0.06307159  0.24574659    -0.71900
O31         O  0.43172456  0.08933673  0.28057927    -0.71700
O32         O  0.45324603  0.11960804  0.22331829    -0.71700
O33         O  0.51125092  0.14787944  0.22968504    -0.71700
O34         O  0.48887710  0.11879380  0.28922947    -0.71700
O35         O  0.50448037  0.09365714  0.25419957    -0.71700
O36         O  0.50007174  0.17681301  0.26484790    -0.71800
V37         V  0.44465228  0.10592215  0.25221294     1.35200
V38         V  0.49996163  0.13384898  0.25946423     1.35200
C39         C  0.47176322  0.17845350  0.26210226     0.77600
C40         C  0.47800472  0.06455714  0.24780657     0.77600
C41         C  0.45584528  0.09687019  0.29448128     0.77500
C42         C  0.48521070  0.13764308  0.21633174     0.77500
O43         O  0.33529394  0.03570976  0.41533596    -0.71700
O44         O  0.42676969  0.03815624  0.42218224    -0.71900
O45         O  0.39349762  0.05113049  0.38970748    -0.71700
O46         O  0.37147547  0.02760816  0.44760113    -0.71700
O47         O  0.34102234  0.48116708  0.44333258    -0.71700
O48         O  0.37445999  0.99509848  0.38171342    -0.71700
O49         O  0.39941046  0.48995278  0.42230916    -0.71700
O50         O  0.31522202  0.48956578  0.40556194    -0.71800
V51         V  0.38124567  0.03725037  0.41842632     1.35200
V52         V  0.35851453  0.49196109  0.41399178     1.35200
C53         C  0.30790127  0.00664147  0.40852355     0.77600
C54         C  0.42610544  0.00799444  0.42233005     0.77600
C55         C  0.39130427  0.02845786  0.37615036     0.77500
C56         C  0.35062824  0.99589809  0.45409957     0.77500
O57         O  0.15800879  0.01790758  0.59586927    -0.71700
O58         O  0.06374711  0.00595743  0.58323586    -0.71900
O59         O  0.10685325  0.02549779  0.61791791    -0.71700
O60         O  0.11629956  0.00266643  0.56121460    -0.71700
O61         O  0.08554665  0.45277274  0.56712866    -0.71700
O62         O  0.08040019  0.96906846  0.62759238    -0.71700
O63         O  0.03427646  0.45826807  0.58893120    -0.71700
O64         O  0.12388693  0.46880775  0.60385164    -0.71800
V65         V  0.11077764  0.01196557  0.58984431     1.35200
V66         V  0.07995487  0.46570194  0.59615918     1.35200
C67         C  0.15985211  0.99035509  0.60194665     0.77600
C68         C  0.03549774  0.97469350  0.58532422     0.77600
C69         C  0.09125864  0.00196177  0.63236621     0.77500
C70         C  0.10566510  0.97096886  0.55513290     0.77500
O71         O  0.16235368  0.12082958  0.75131717    -0.71700
O72         O  0.07568042  0.02822936  0.76211647    -0.71900
O73         O  0.11625713  0.06187693  0.72751001    -0.71700
O74         O  0.12338922  0.08418487  0.78590502    -0.71700
O75         O  0.09463628  0.11354829  0.78145515    -0.71700
O76         O  0.07848363  0.08122642  0.72236167    -0.71700
O77         O  0.04518380  0.05620745  0.76012388    -0.71700
O78         O  0.12670425  0.14169648  0.74340796    -0.71800
V79         V  0.11900785  0.07433846  0.75653239     1.35200
V80         V  0.08704417  0.09785930  0.75184391     1.35200
C81         C  0.15836914  0.14750847  0.74606800     0.77600
C82         C  0.04532804  0.02737987  0.76325138     0.77600
C83         C  0.09430401  0.06468667  0.71530807     0.77500
C84         C  0.11075820  0.10242318  0.79395626     0.77500
O85         O  0.27387758  0.44132927  0.58796134    -0.71700
O86         O  0.36761482  0.44896884  0.57891174    -0.71900
O87         O  0.32011414  0.42835485  0.61177697    -0.71700
O88         O  0.31992981  0.45733027  0.55509458    -0.71700
O89         O  0.34896421  0.51403031  0.56385753    -0.71700
O90         O  0.34557641  0.48375386  0.62298479    -0.71700
O91         O  0.39258668  0.50416323  0.59026406    -0.71700
O92         O  0.30280406  0.49808059  0.59698215    -0.71800
V93         V  0.32076052  0.44498318  0.58375391     1.35200
V94         V  0.34676879  0.49884973  0.59342655     1.35200
C95         C  0.27327966  0.46992146  0.59297268     0.77600
C96         C  0.39636337  0.47899907  0.58298317     0.77600
C97         C  0.33359082  0.45028444  0.62703123     0.77500
C98         C  0.33502986  0.48987831  0.54932701     0.77500
O99         O  0.26542300  0.32568178  0.74722166    -0.71700
O100        O  0.34841791  0.42009323  0.75729782    -0.71900
O101        O  0.30757112  0.38592923  0.72307847    -0.71700
O102        O  0.30460034  0.36238343  0.78129850    -0.71700
O103        O  0.33970906  0.34010162  0.77593912    -0.71700
O104        O  0.34463052  0.36648436  0.71581838    -0.71700
O105        O  0.38262399  0.39670705  0.75147008    -0.71700
O106        O  0.30246950  0.30629695  0.74005757    -0.71800
V107        V  0.30700930  0.37293623  0.75195526     1.35200
V108        V  0.34144116  0.35257195  0.74582150     1.35200
C109        C  0.27036932  0.29942827  0.74274070     0.77600
C110        C  0.37987013  0.42346385  0.75668163     0.77600
C111        C  0.32797692  0.38280733  0.70972529     0.77500
C112        C  0.32230377  0.34880302  0.78903843     0.77500
O113        O  0.32618454  0.30767754  0.92462512    -0.71700
O114        O  0.41193662  0.40130081  0.91497445    -0.71900
O115        O  0.38151861  0.35739888  0.94902364    -0.71700
O116        O  0.35934625  0.35000055  0.89037360    -0.71700
O117        O  0.32492138  0.37325515  0.89497851    -0.71700
O118        O  0.35245064  0.38612487  0.95510814    -0.71700
O119        O  0.37784373  0.42519682  0.91892142    -0.71700
O120        O  0.29659646  0.33555169  0.93145927    -0.71800
V121        V  0.36912066  0.35454401  0.91988631     1.35200
V122        V  0.33853120  0.37947996  0.92504456     1.35200
C123        C  0.29628870  0.30625513  0.92932577     0.77600
C124        C  0.40875196  0.42938370  0.91547067     0.77600
C125        C  0.37233172  0.37375610  0.96199796     0.77500
C126        C  0.33829993  0.35944474  0.88236373     0.77500
O127        O  0.42979828  0.30545525  0.08130343    -0.71700
O128        O  0.42304788  0.39077419  0.09267723    -0.71900
O129        O  0.41165433  0.34847663  0.05819004    -0.71700
O130        O  0.43672617  0.34583832  0.11555863    -0.71700
O131        O  0.49428411  0.37764461  0.10796318    -0.71700
O132        O  0.46781861  0.38578758  0.04949027    -0.71700
O133        O  0.48098877  0.42301727  0.08608975    -0.71700
O134        O  0.48571675  0.34112018  0.07126971    -0.71800
V135        V  0.42631030  0.34817262  0.08661820     1.35200
V136        V  0.48106292  0.38101720  0.07870241     1.35200
C137        C  0.46034056  0.30954824  0.07530938     0.77600
C138        C  0.45217683  0.42160923  0.09201562     0.77600
C139        C  0.43423220  0.36887195  0.04425078     0.77500
C140        C  0.46908232  0.36127995  0.12190980     0.77500
O141        O  0.12407034  0.17097717  0.92819991    -0.71700
O142        O  0.04313691  0.07583244  0.91541272    -0.71900
O143        O  0.06532425  0.11854272  0.95016784    -0.71700
O144        O  0.09834418  0.12927178  0.89352784    -0.71700
O145        O  0.12725139  0.10077931  0.90055557    -0.71700
O146        O  0.10149361  0.09933674  0.96036599    -0.71700
O147        O  0.07581609  0.05361525  0.92719931    -0.71700
O148        O  0.15629409  0.14563015  0.93420045    -0.71800
V149        V  0.08334140  0.12331690  0.92212507     1.35200
V150        V  0.11471218  0.10041488  0.93049122     1.35200
C151        C  0.15495104  0.17413812  0.93227299     0.77600
C152        C  0.04654151  0.04836457  0.91922155     0.77600
C153        C  0.07728416  0.10749382  0.96498304     0.77500
C154        C  0.11629664  0.11537592  0.88680044     0.77500
O155        O  0.02612368  0.18726995  0.08241708    -0.71700
O156        O  0.03052819  0.10037813  0.09215417    -0.71900
O157        O  0.04038810  0.14333654  0.05849327    -0.71700
O158        O  0.02075434  0.14624901  0.11644518    -0.71700
O159        O  0.46619010  0.12887284  0.11041197    -0.71700
O160        O  0.48642462  0.11709600  0.05109330    -0.71700
O161        O  0.47586332  0.08154391  0.08818042    -0.71700
O162        O  0.47195165  0.16390603  0.07292020    -0.71800
V163        V  0.02836654  0.14383642  0.08722508     1.35200
V164        V  0.47611322  0.12373051  0.08062582     1.35200
C165        C  0.99637535  0.18443875  0.07592174     0.77600
C166        C  0.00088086  0.06998288  0.09240521     0.77600
C167        C  0.01696729  0.12168344  0.04559379     0.77500
C168        C  0.49304523  0.14318414  0.12336193     0.77500
C169        C  0.03081383  0.11553289  0.02472664     0.00000
C170        C  0.06898364  0.13498908  0.02122441    -0.11900
C171        C  0.08492810  0.13034499  0.00273057     0.02200
C172        C  0.06289191  0.10589213  0.98690360    -0.00100
C173        C  0.02491212  0.08584679  0.99031181    -0.11800
C174        C  0.00882110  0.09001259  0.00909503     0.02100
H175        H  0.08693486  0.15456863  0.03292123     0.15100
H176        H  0.00760580  0.06749476  0.97790564     0.15100
C177        C  0.96989603  0.06806898  0.01170074     0.36700
C178        C  0.12376732  0.15293466  0.99964314     0.36600
N179        N  0.93866615  0.05030289  0.01375359    -0.43600
N180        N  0.15484555  0.17113350  0.99709768    -0.43600
C181        C  0.46894582  0.27977395  0.07465270     0.00000
C182        C  0.50458780  0.28830289  0.08019674    -0.11900
C183        C  0.51508647  0.26198253  0.08057249     0.02200
C184        C  0.48987526  0.22593189  0.07489266    -0.00100
C185        C  0.01540424  0.24876940  0.08327051    -0.11800
C186        C  0.44370568  0.24392975  0.06897049     0.02100
H187        H  0.52435488  0.31575850  0.08484731     0.15100
H188        H  0.03944991  0.25147659  0.09103455     0.15100
C189        C  0.03499049  0.30982141  0.09524403     0.36700
C190        C  0.55155027  0.27280069  0.08743907     0.36600
N191        N  0.05643409  0.33563571  0.10398750    -0.43600
N192        N  0.58078550  0.28165703  0.09304894    -0.43600
C193        C  0.50282845  0.04655789  0.09388604     0.00000
C194        C  0.47015234  0.01771884  0.10244390    -0.11900
C195        C  0.42874399  0.46518598  0.09005056     0.02200
C196        C  0.45472084  0.45654943  0.09713063    -0.00100
C197        C  0.48802088  0.48438196  0.10544132    -0.11800
C198        C  0.02607088  0.02813337  0.08779860     0.02100
H199        H  0.45038187  0.02336075  0.10976511     0.15100
H200        H  0.01510140  0.47199783  0.11568596     0.15100
C201        C  0.06071514  0.05718940  0.08017946     0.36700
C202        C  0.39421785  0.43798749  0.08139389     0.36600
N203        N  0.08841476  0.08039931  0.07396135    -0.43600
N204        N  0.36656753  0.41620857  0.07442344    -0.43600
C205        C  0.26052512  0.27219868  0.93135254     0.00000
C206        C  0.22876638  0.27375826  0.92688487    -0.11900
C207        C  0.19395185  0.24289497  0.92792800     0.02200
C208        C  0.19009785  0.20925154  0.93370320    -0.00100
C209        C  0.22189448  0.20811986  0.93906135    -0.11800
C210        C  0.25671179  0.23894310  0.93779725     0.02100
H211        H  0.23111152  0.29923780  0.92199470     0.15100
H212        H  0.21982545  0.18273872  0.94386622     0.15100
C213        C  0.28783979  0.23575338  0.94356625     0.36700
C214        C  0.16305018  0.24659733  0.92238106     0.36600
N215        N  0.31278167  0.23321610  0.94825506    -0.43600
N216        N  0.13835165  0.24969493  0.91792027    -0.43600
C217        C  0.01841933  0.01033499  0.91475147     0.00000
C218        C  0.51599661  0.00497764  0.90597326    -0.11900
C219        C  0.47134105  0.47654898  0.90154915     0.02200
C220        C  0.43938600  0.46708011  0.91316475    -0.00100
C221        C  0.43561336  0.49480584  0.92293627    -0.11800
C222        C  0.47327459  0.02668433  0.90823169     0.02100
H223        H  0.04121376  0.98989011  0.93833604     0.15100
H224        H  0.41114970  0.48804897  0.93197802     0.15100
C225        C  0.46440054  0.05484977  0.91105940     0.36700
C226        C  0.47645672  0.44978158  0.89057288     0.36600
N227        N  0.45716929  0.07732719  0.91342231    -0.43600
N228        N  0.48064696  0.42837932  0.88175962    -0.43600
C229        C  0.38481991  0.37641586  0.98456149     0.00000
C230        C  0.41941801  0.40500295  0.99048518    -0.11900
C231        C  0.43664407  0.40334850  0.00954542     0.02200
C232        C  0.41953293  0.37224220  0.02292896    -0.00100
C233        C  0.38465321  0.34406752  0.01694911    -0.11800
C234        C  0.36754587  0.34585038  0.99811376     0.02100
H235        H  0.43357347  0.42815988  0.97981767     0.15100
H236        H  0.37062268  0.32000304  0.02693828     0.15100
C237        C  0.33267176  0.31515052  0.99249284     0.36700
C238        C  0.47141734  0.43410033  0.01510511     0.36600
N239        N  0.30475491  0.29060402  0.98792857    -0.43600
N240        N  0.49923763  0.45887523  0.01957940    -0.43600
C241        C  0.32340523  0.34632355  0.81304763     0.00000
C242        C  0.30289076  0.35753914  0.82539970    -0.11900
C243        C  0.30647888  0.36147902  0.84780209     0.02200
C244        C  0.33105073  0.35407400  0.85867421    -0.00100
C245        C  0.35009467  0.34097676  0.84645759    -0.11800
C246        C  0.34650162  0.33703926  0.82404218     0.02100
H247        H  0.28439155  0.36432478  0.81748727     0.15100
H248        H  0.36867129  0.33429535  0.85436336     0.15100
C249        C  0.36743532  0.32410613  0.81284897     0.36700
C250        C  0.28474098  0.37342760  0.85902446     0.36600
N251        N  0.38415984  0.31360526  0.80393428    -0.43600
N252        N  0.26717359  0.38293820  0.86793536    -0.43600
C253        C  0.33548287  0.43548414  0.64853562     0.00000
C254        C  0.33712836  0.40321615  0.64927015    -0.11900
C255        C  0.33593141  0.38591892  0.66881835     0.02200
C256        C  0.33291334  0.40073156  0.68830989    -0.00100
C257        C  0.33209022  0.43336693  0.68757964    -0.11800
C258        C  0.33343228  0.45072582  0.66808840     0.02100
H259        H  0.33871984  0.39096591  0.63441142     0.15100
H260        H  0.32968334  0.44516105  0.70241053     0.15100
C261        C  0.33044153  0.48285747  0.66862229     0.36700
C262        C  0.33544717  0.35194007  0.66829759     0.36600
N263        N  0.32786868  0.50852977  0.66905980    -0.43600
N264        N  0.33483179  0.32458210  0.66779590    -0.43600
C265        C  0.12109386  0.11514793  0.86309982     0.00000
C266        C  0.11505400  0.13917917  0.85043560    -0.11900
C267        C  0.11153013  0.13592146  0.82803358     0.02200
C268        C  0.11471529  0.10851857  0.81761738    -0.00100
C269        C  0.12242271  0.08556348  0.83019769    -0.11800
C270        C  0.12540592  0.08846489  0.85261111     0.02100
H271        H  0.11179729  0.16008894  0.85815830     0.15100
H272        H  0.12501712  0.06419676  0.82256835     0.15100
C273        C  0.13062363  0.06227759  0.86439060     0.36700
C274        C  0.10454303  0.16094055  0.81627354     0.36600
N275        N  0.13469653  0.04117935  0.87378951    -0.43600
N276        N  0.09888351  0.18099918  0.80688493    -0.43600
C277        C  0.41398587  0.45685877  0.76155100     0.00000
C278        C  0.44145920  0.45288336  0.77159604    -0.11900
C279        C  0.49249705  0.98042841  0.76877360     0.02200
C280        C  0.00930977  0.99452073  0.76647485    -0.00100
C281        C  0.45890413  0.51844175  0.75241952    -0.11800
C282        C  0.42267403  0.49036394  0.75252075     0.02100
H283        H  0.44953769  0.92621116  0.77517634     0.15100
H284        H  0.97571919  0.55070288  0.76161395     0.15100
C285        C  0.39579705  0.49560755  0.74152383     0.36700
C286        C  0.03161899  0.95172974  0.75947662     0.36600
N287        N  0.37439360  0.49992589  0.73263701    -0.43600
N288        N  0.05489619  0.94544497  0.75731450    -0.43600
C289        C  0.24065144  0.26082867  0.74192632     0.00000
C290        C  0.24987229  0.23398291  0.73729072    -0.11900
C291        C  0.22413907  0.19685433  0.73871917     0.02200
C292        C  0.18811007  0.18583073  0.74448826    -0.00100
C293        C  0.17884360  0.21259632  0.74882654    -0.11800
C294        C  0.20444692  0.24952527  0.74769810     0.02100
H295        H  0.27759873  0.24188708  0.73291476     0.15100
H296        H  0.15125382  0.20466211  0.75361823     0.15100
C297        C  0.19269384  0.27481710  0.75321382     0.36700
C298        C  0.23528272  0.17085425  0.73396963     0.36600
N299        N  0.18311174  0.29492214  0.75772634    -0.43600
N300        N  0.24424881  0.15001286  0.73019536    -0.43600
C301        C  0.43438185  0.48686726  0.57966056     0.00000
C302        C  0.46982506  0.01245408  0.57295257    -0.11900
C303        C  0.50559573  0.01921973  0.57388568     0.02200
C304        C  0.99763767  0.96624869  0.58081717    -0.00100
C305        C  0.48007443  0.47219108  0.56850181    -0.11800
C306        C  0.44339273  0.46240139  0.57044939     0.02100
H307        H  0.46567159  0.03546420  0.57212435     0.15100
H308        H  0.96892229  0.42310251  0.59364188     0.15100
C309        C  0.41589080  0.42662090  0.56379097     0.36700
C310        C  0.01723359  0.02678062  0.56450374     0.36600
N311        N  0.39395269  0.39778283  0.55860282    -0.43600
N312        N  0.03954848  0.05550621  0.55917670    -0.43600
C313        C  0.24026573  0.47311597  0.59330773     0.00000
C314        C  0.21715950  0.46056555  0.61121028    -0.11900
C315        C  0.19052153  0.47035943  0.61430333     0.02200
C316        C  0.19444990  0.98964981  0.60327561    -0.00100
C317        C  0.22439435  0.01446019  0.59101752    -0.11800
C318        C  0.23695952  0.49664526  0.57858865     0.02100
H319        H  0.22069011  0.44405566  0.62314810     0.15100
H320        H  0.22378325  0.03676201  0.58306238     0.15100
C321        C  0.28401279  0.03620096  0.57479337     0.36700
C322        C  0.16776069  0.45682889  0.63321658     0.36600
N323        N  0.30773161  0.05770002  0.56442004    -0.43600
N324        N  0.14952816  0.44598334  0.64837445    -0.43600
C325        C  0.08631387  0.01441106  0.65388690     0.00000
C326        C  0.08586093  0.04726191  0.65496537    -0.11900
C327        C  0.08607551  0.06326854  0.67470014     0.02200
C328        C  0.08720062  0.04668699  0.69398969    -0.00100
C329        C  0.08562288  0.01292778  0.69297305    -0.11800
C330        C  0.08490229  0.99664547  0.67327763     0.02100
H331        H  0.08632758  0.06114976  0.64024562     0.15100
H332        H  0.08603275  0.99960068  0.70775537     0.15100
C333        C  0.08484486  0.96286957  0.67352909     0.36700
C334        C  0.08753167  0.09772495  0.67467501     0.36600
N335        N  0.08474802  0.93575616  0.67377772    -0.43600
N336        N  0.08869026  0.12535398  0.67465841    -0.43600
C337        C  0.34552182  0.50264521  0.48036465     0.00000
C338        C  0.35203984  0.02190817  0.49006092    -0.11900
C339        C  0.35121604  0.02082901  0.51258426     0.02200
C340        C  0.33670622  0.49729857  0.52580355    -0.00100
C341        C  0.31354930  0.46829836  0.51222413    -0.11800
C342        C  0.31778335  0.47060161  0.48983639    -0.01500
H343        H  0.36110806  0.04777826  0.48217200     0.15100
H344        H  0.29245144  0.44300874  0.51916636     0.15100
C345        C  0.29334212  0.43965784  0.47711591     0.36700
C346        C  0.36253503  0.05408341  0.52403806     0.36600
N347        N  0.27370637  0.41483662  0.46693338    -0.43600
N348        N  0.37190697  0.08102010  0.53298684    -0.43600
C349        C  0.44392992  0.07831811  0.31574902     0.00000
C350        C  0.41528236  0.04184907  0.31621395    -0.11900
C351        C  0.39879489  0.02398798  0.33560085     0.02200
C352        C  0.41026330  0.04294772  0.35510104    -0.00100
C353        C  0.44027443  0.07877606  0.35464806    -0.11800
C354        C  0.45723511  0.09631638  0.33534397     0.02100
H355        H  0.40510683  0.02738990  0.30120847     0.15100
H356        H  0.45016312  0.09368765  0.36953127     0.15100
C357        C  0.48662808  0.13341860  0.33602373     0.36700
C358        C  0.37207053  0.49120181  0.33855030     0.36600
N359        N  0.51021795  0.16316328  0.33659780    -0.43600
N360        N  0.34867567  0.46134010  0.33874006    -0.43600
C361        C  0.49012535  0.14397503  0.19279021     0.00000
C362        C  0.46188322  0.14408956  0.18088092    -0.11900
C363        C  0.46161626  0.14353861  0.15831474     0.02200
C364        C  0.49012291  0.14304613  0.14718029    -0.00100
C365        C  0.51866675  0.14368909  0.15914360    -0.11800
C366        C  0.51886292  0.14402236  0.18160384     0.02100
H367        H  0.43940393  0.14385818  0.18927904     0.15100
H368        H  0.54077772  0.14298031  0.15088811     0.15100
C369        C  0.54753972  0.14183577  0.19265304     0.36700
C370        C  0.43228385  0.14412363  0.14706974     0.36600
N371        N  0.57040921  0.13988858  0.20150118    -0.43600
N372        N  0.40878766  0.14467604  0.13806175    -0.43600
C373        C  0.10226493  0.46783837  0.48408067     0.00000
C374        C  0.13614143  0.99143676  0.49675099    -0.11900
C375        C  0.13799451  0.99247847  0.51929850     0.02200
C376        C  0.10358580  0.47170595  0.52971872    -0.00100
C377        C  0.07617114  0.44121482  0.51934895    -0.11800
C378        C  0.07524025  0.43896473  0.49683426     0.02100
H379        H  0.15826405  0.01243009  0.48735250     0.15100
H380        H  0.05428581  0.41997690  0.52876976     0.15100
C381        C  0.04484520  0.40741090  0.48737390     0.36700
C382        C  0.17007925  0.02163269  0.52916818     0.36600
N383        N  0.02048205  0.38204186  0.47989159    -0.43600
N384        N  0.19580167  0.04490701  0.53710575    -0.43600
C385        C  0.26975338  0.99912652  0.40905985     0.00000
C386        C  0.24461185  0.47377732  0.39994750    -0.11900
C387        C  0.20706701  0.46070573  0.40173752     0.02200
C388        C  0.19469584  0.48083974  0.41298091    -0.00100
C389        C  0.22075463  0.51411703  0.42214090    -0.11800
C390        C  0.25833467  0.52691462  0.42076610     0.02100
H391        H  0.25431280  0.96480377  0.38102452     0.15100
H392        H  0.21161004  0.53007437  0.43079317     0.15100
C393        C  0.28299492  0.56005832  0.43170531     0.36700
C394        C  0.18192515  0.42712925  0.39139092     0.36600
N395        N  0.29935954  0.05415796  0.45565301    -0.43600
N396        N  0.16178235  0.40021024  0.38307288    -0.43600
C397        C  0.99503152  0.45324607  0.42928921     0.00000
C398        C  0.00295697  0.98504369  0.44234321    -0.11900
C399        C  0.49149035  0.02628874  0.41544822     0.02200
C400        C  0.45810671  0.00374865  0.42571836    -0.00100
C401        C  0.45699077  0.48475181  0.44038846    -0.11800
C402        C  0.48246890  0.47311128  0.43891274     0.02100
H403        H  0.02594898  0.00012905  0.45294692     0.15100
H404        H  0.43286071  0.46936013  0.45024466     0.15100
C405        C  0.47717065  0.44260479  0.45171817     0.36700
C406        C  0.98180648  0.02696335  0.45200578     0.36600
N407        N  0.47293713  0.41821660  0.46206770    -0.43600
N408        N  0.98520217  0.05129525  0.46192803    -0.43600
C409        C  0.47609267  0.21515692  0.26190186     0.00000
C410        C  0.50568226  0.24243040  0.25011804    -0.11900
C411        C  0.51375600  0.27857640  0.25015689     0.02200
C412        C  0.49245627  0.28843438  0.26258357    -0.00100
C413        C  0.95601880  0.24537773  0.27355558    -0.11800
C414        C  0.45479535  0.22479595  0.27433509     0.02100
H415        H  0.52237090  0.23527155  0.24049263     0.15100
H416        H  0.93479087  0.25030717  0.27917661     0.15100
C417        C  0.91387293  0.18092323  0.28095363     0.36700
C418        C  0.54257738  0.30430624  0.23632937     0.36600
N419        N  0.88602901  0.15807782  0.28724277    -0.43600
N420        N  0.56553256  0.32479971  0.22510997    -0.43600
C421        C  0.47973837  0.46852885  0.24505681     0.00000
C422        C  0.44690904  0.46436804  0.25348286    -0.11900
C423        C  0.43873358  0.49217171  0.25228022     0.02200
C424        C  0.48497350  0.03426321  0.24362029    -0.00100
C425        C  0.52082026  0.04104324  0.24699585    -0.11800
C426        C  0.00994147  0.49106936  0.23779990     0.02100
H427        H  0.42778377  0.43958300  0.26175557     0.15100
H428        H  0.03576209  0.05274999  0.23943436     0.15100
C429        C  0.05986814  0.00715331  0.24082049     0.36700
C430        C  0.40556252  0.48661463  0.26216168     0.36600
N431        N  0.09015004  0.01504320  0.23971489    -0.43600
N432        N  0.37879568  0.48187305  0.26997103    -0.43600
C433        C  0.02143212  0.40665527  0.31790297     0.00000
C434        C  0.04976397  0.44307737  0.31991008    -0.11900
C435        C  0.06648176  0.45763130  0.33983251     0.02200
C436        C  0.05568279  0.43536312  0.35828783    -0.00100
C437        C  0.02649213  0.39929135  0.35628021    -0.11800
C438        C  0.00932367  0.38503975  0.33653645     0.02100
H439        H  0.05947226  0.46013026  0.30566893     0.15100
H440        H  0.01717890  0.38164244  0.37027377     0.15100
C441        C  0.48145160  0.35842398  0.33371789     0.36700
C442        C  0.09558862  0.49482496  0.34066141     0.36600
N443        N  0.45881886  0.32828959  0.33288622    -0.43600
N444        N  0.11888324  0.52469871  0.34132829    -0.43600
C445        C  0.47775988  0.36399410  0.19113370     0.00000
C446        C  0.00815064  0.36134070  0.18093555    -0.11900
C447        C  0.50520161  0.38955564  0.15586465     0.02200
C448        C  0.47529401  0.36088041  0.14544088    -0.00100
C449        C  0.44733960  0.33343580  0.15819186    -0.11800
C450        C  0.44828599  0.33480136  0.18075899     0.02100
H451        H  0.03420171  0.37148872  0.18882496     0.15100
H452        H  0.42406312  0.31105966  0.15047137     0.15100
C453        C  0.41904124  0.30576467  0.19278233     0.36700
C454        C  0.04246051  0.37864467  0.14732664     0.36600
N455        N  0.39561261  0.28242138  0.20241455    -0.43600
N456        N  0.07035866  0.39167462  0.13866292    -0.43600
O457        O  0.03501204  0.84477365  0.25939129    -0.71700
O458        O  0.03117020  0.93206372  0.24763209    -0.71900
O459        O  0.04394469  0.90286273  0.28245458    -0.71700
O460        O  0.02706955  0.87740141  0.22433329    -0.71700
O461        O  0.47056562  0.86216824  0.22746573    -0.71700
O462        O  0.49162833  0.89069190  0.28715060    -0.71700
O463        O  0.47827062  0.91723766  0.25125026    -0.71700
O464        O  0.47954426  0.83256310  0.26375786    -0.71800
V465        V  0.03325411  0.88862202  0.25362572     1.35200
V466        V  0.48116114  0.87609476  0.25732663     1.35200
C467        C  0.00520347  0.81548133  0.26343579     0.77600
C468        C  0.00059273  0.93070703  0.24940617     0.77600
C469        C  0.01879102  0.89286148  0.29603153     0.77500
C470        C  0.49681872  0.87283176  0.21407211     0.77500
O471        O  0.12822087  0.93092723  0.42004128    -0.71700
O472        O  0.03459065  0.92394320  0.42798483    -0.71900
O473        O  0.07131042  0.91842725  0.39464789    -0.71700
O474        O  0.08870749  0.93170425  0.45360631    -0.71700
O475        O  0.11699607  0.99013253  0.45013563    -0.71700
O476        O  0.09243361  0.97573904  0.38942632    -0.71700
O477        O  0.06254867  0.98261774  0.42571505    -0.71700
O478        O  0.15086579  0.98840054  0.41381442    -0.71800
V479        V  0.08133134  0.92733820  0.42394975     1.35200
V480        V  0.10546382  0.98311552  0.41974915     1.35200
C481        C  0.15568256  0.96197670  0.41587036     0.77600
C482        C  0.03358616  0.95325822  0.42845965     0.77600
C483        C  0.07598264  0.94344891  0.38206286     0.77500
C484        C  0.10446783  0.96222196  0.46231087     0.77500
O485        O  0.44320243  0.65369051  0.26027910    -0.71700
O486        O  0.43416096  0.56103249  0.24770660    -0.71900
O487        O  0.42991927  0.59355732  0.28322056    -0.71700
O488        O  0.44322752  0.61848604  0.22479774    -0.71700
O489        O  0.50175910  0.64377328  0.22776170    -0.71700
O490        O  0.48790214  0.61544596  0.28770998    -0.71700
O491        O  0.49288419  0.58691749  0.25051065    -0.71700
O492        O  0.50114442  0.67535370  0.26475766    -0.71800
V493        V  0.43873199  0.60727506  0.25417327     1.35200
V494        V  0.49476551  0.63003373  0.25772826     1.35200
C495        C  0.47481742  0.68076302  0.26370394     0.77600
C496        C  0.46298520  0.55895623  0.24681079     0.77600
C497        C  0.45555576  0.59796324  0.29520542     0.77500
C498        C  0.47400386  0.63469569  0.21596248     0.77500
O499        O  0.33670847  0.54444533  0.41680293    -0.71700
O500        O  0.42913202  0.54860668  0.42463017    -0.71900
O501        O  0.39546069  0.55941933  0.39146262    -0.71700
O502        O  0.37362044  0.53860592  0.44980994    -0.71700
O503        O  0.33838594  0.97052667  0.44023282    -0.71700
O504        O  0.37713054  0.50310872  0.38475719    -0.71700
O505        O  0.39653806  0.97970635  0.41860715    -0.71700
O506        O  0.31280124  0.98125713  0.40293994    -0.71800
V507        V  0.38321890  0.54689309  0.42044690     1.35200
V508        V  0.35587279  0.98262221  0.41089479     1.35200
C509        C  0.30956282  0.51481864  0.41028061     0.77600
C510        C  0.42885009  0.51863101  0.42548026     0.77600
C511        C  0.39359159  0.53611709  0.37847250     0.77500
C512        C  0.35317540  0.50709911  0.45680193     0.77500
O513        O  0.15258695  0.52413925  0.59196080    -0.71700
O514        O  0.05898343  0.51541598  0.58140112    -0.71900
O515        O  0.10402527  0.53487674  0.61525450    -0.71700
O516        O  0.10894809  0.50939053  0.55841365    -0.71700
O517        O  0.09093501  0.94548066  0.56900802    -0.71700
O518        O  0.07367517  0.47850601  0.62508473    -0.71700
O519        O  0.03973989  0.94934057  0.59194276    -0.71700
O520        O  0.13057619  0.96126912  0.60511939    -0.71800
V521        V  0.10572518  0.51998703  0.58709212     1.35200
V522        V  0.08602567  0.95743296  0.59831955     1.35200
C523        C  0.15347699  0.49653233  0.59900959     0.77600
C524        C  0.03049887  0.48419613  0.58295167     0.77600
C525        C  0.08644953  0.51184753  0.62966671     0.77500
C526        C  0.09935243  0.47769272  0.55283385     0.77500
O527        O  0.15676175  0.63231145  0.74620533    -0.71700
O528        O  0.06621399  0.54593773  0.76052900    -0.71900
O529        O  0.10653726  0.57229988  0.72484125    -0.71700
O530        O  0.11788604  0.60271776  0.78184303    -0.71700
O531        O  0.09079597  0.63327828  0.77600793    -0.71700
O532        O  0.07498098  0.59790820  0.71730000    -0.71700
O533        O  0.03928662  0.57673022  0.75483111    -0.71700
O534        O  0.12549099  0.65787832  0.73804260    -0.71800
V535        V  0.11141814  0.58893338  0.75311184     1.35200
V536        V  0.08334506  0.61603197  0.74658437     1.35200
C537        C  0.15599013  0.66053991  0.74035468     0.77600
C538        C  0.03709704  0.54752881  0.76032335     0.77600
C539        C  0.08757464  0.57767734  0.71153912     0.77500
C540        C  0.10638288  0.62239548  0.78913581     0.77500
O541        O  0.28442975  0.94431955  0.58990377    -0.71700
O542        O  0.37290905  0.94357824  0.57695541    -0.71900
O543        O  0.33141385  0.93093269  0.61198571    -0.71700
O544        O  0.32420830  0.95250028  0.55473662    -0.71700
O545        O  0.35743141  0.01016890  0.56028472    -0.71700
O546        O  0.36192209  0.98780403  0.62034055    -0.71700
O547        O  0.40293862  0.00054589  0.58507488    -0.71700
O548        O  0.31759239  0.00201865  0.59579037    -0.71800
V549        V  0.32873629  0.94393370  0.58361923     1.35200
V550        V  0.35919466  0.99902811  0.59033461     1.35200
C551        C  0.28659529  0.97448677  0.59416247     0.77600
C552        C  0.40330102  0.97294807  0.57878157     0.77600
C553        C  0.34831682  0.95464488  0.62594436     0.77500
C554        C  0.34044943  0.98404462  0.54718390     0.77500
O555        O  0.27496611  0.83520681  0.74556160    -0.71700
O556        O  0.36199282  0.92521603  0.75856058    -0.71900
O557        O  0.32237412  0.89606180  0.72321529    -0.71700
O558        O  0.31334608  0.86721922  0.78099431    -0.71700
O559        O  0.34580166  0.84200561  0.77553007    -0.71700
O560        O  0.35525304  0.87176734  0.71596019    -0.71700
O561        O  0.39285777  0.89843318  0.75216587    -0.71700
O562        O  0.30906685  0.81203281  0.73907609    -0.71800
V563        V  0.31861646  0.88031458  0.75185309     1.35200
V564        V  0.34990064  0.85638025  0.74571088     1.35200
C565        C  0.27777748  0.80773203  0.74087388     0.77600
C566        C  0.39241552  0.92627902  0.75774205     0.77600
C567        C  0.34144256  0.89078497  0.70990422     0.77500
C568        C  0.32876624  0.85115206  0.78860145     0.77500
O569        O  0.33478590  0.80579185  0.92443224    -0.71700
O570        O  0.42186490  0.89573330  0.91018201    -0.71900
O571        O  0.39550988  0.85561379  0.94584286    -0.71700
O572        O  0.36438737  0.84447142  0.88871182    -0.71700
O573        O  0.33247846  0.86999459  0.89500540    -0.71700
O574        O  0.37141459  0.88860710  0.95296216    -0.71700
O575        O  0.39061989  0.92245770  0.91481559    -0.71700
O576        O  0.30994478  0.83721280  0.93361610    -0.71800
V577        V  0.37853024  0.85080337  0.91751364     1.35200
V578        V  0.35153830  0.87888428  0.92405839     1.35200
C579        C  0.30678995  0.80674749  0.93084991     0.77600
C580        C  0.42024796  0.92470084  0.90997741     0.77600
C581        C  0.39132788  0.87561919  0.95885517     0.77500
C582        C  0.34339255  0.85475538  0.88172673     0.77500
O583        O  0.44500693  0.81572518  0.07906257    -0.71700
O584        O  0.44891790  0.90712915  0.08904388    -0.71900
O585        O  0.43420561  0.86326811  0.05523897    -0.71700
O586        O  0.45473648  0.85792011  0.11301895    -0.71700
O587        O  0.51274275  0.88558839  0.10690160    -0.71700
O588        O  0.49149552  0.89352838  0.04688028    -0.71700
O589        O  0.50671788  0.93374164  0.08228797    -0.71700
O590        O  0.50246455  0.84644574  0.07106016    -0.71800
V591        V  0.44678826  0.86141864  0.08385114     1.35200
V592        V  0.50220069  0.88908899  0.07683736     1.35200
C593        C  0.47443723  0.81625433  0.07413215     0.77600
C594        C  0.47964496  0.93631822  0.08734045     0.77600
C595        C  0.45827806  0.88067220  0.04133232     0.77500
C596        C  0.48632443  0.87083583  0.12031852     0.77500
O597        O  0.12989611  0.68964409  0.92583303    -0.71700
O598        O  0.03939109  0.60230065  0.91262113    -0.71900
O599        O  0.06904423  0.64170758  0.94816810    -0.71700
O600        O  0.09714896  0.65166661  0.89038637    -0.71700
O601        O  0.12170181  0.61849391  0.89527918    -0.71700
O602        O  0.09510160  0.61046239  0.95531838    -0.71700
O603        O  0.06671125  0.57228620  0.91976583    -0.71700
O604        O  0.15380203  0.65589990  0.93114281    -0.71800
V605        V  0.08446223  0.64591047  0.91951661     1.35200
V606        V  0.10902131  0.61515946  0.92535025     1.35200
C607        C  0.15788026  0.68696090  0.92979254     0.77600
C608        C  0.03870012  0.57216259  0.91359570     0.77600
C609        C  0.07545676  0.62348647  0.96149817     0.77500
C610        C  0.11222176  0.63559385  0.88244293     0.77500
O611        O  0.03522052  0.68664465  0.08310396    -0.71700
O612        O  0.02639249  0.59296349  0.09346347    -0.71900
O613        O  0.04160890  0.63691173  0.05937308    -0.71700
O614        O  0.02489947  0.64416191  0.11743788    -0.71700
O615        O  0.45192460  0.62323882  0.10961891    -0.71700
O616        O  0.47164162  0.61068189  0.05031631    -0.71700
O617        O  0.45456036  0.57181592  0.08679423    -0.71700
O618        O  0.46437661  0.66083837  0.07267605    -0.71800
V619        V  0.03100034  0.63983696  0.08817733     1.35200
V620        V  0.46178481  0.61727031  0.07992100     1.35200
C621        C  0.00673813  0.68760633  0.07771529     0.77600
C622        C  0.99466022  0.56492026  0.09269007     0.77600
C623        C  0.01645935  0.62013975  0.04611973     0.77500
C624        C  0.47850831  0.63780865  0.12275446     0.77500
C625        C  0.02716729  0.61498105  0.02417519     0.00000
C626        C  0.05879131  0.61220440  0.02215745    -0.11900
C627        C  0.07440967  0.61337182  0.00205398     0.02200
C628        C  0.05845675  0.61750069  0.98326874    -0.00100
C629        C  0.02573380  0.61832157  0.98524358    -0.11800
C630        C  0.01007426  0.61704352  0.00535756     0.02100
H631        H  0.07222152  0.61033565  0.03651687     0.15100
H632        H  0.01268264  0.62097345  0.97093734     0.15100
C633        C  0.97804084  0.62045371  0.00627682     0.36700
C634        C  0.10798757  0.61272200  0.00133898     0.36600
N635        N  0.95241067  0.62329070  0.00704678    -0.43600
N636        N  0.13497074  0.61230886  0.00081368    -0.43600
C637        C  0.47866712  0.78372389  0.07312454     0.00000
C638        C  0.51283432  0.78798052  0.07871999    -0.11900
C639        C  0.51926300  0.75881926  0.07852780     0.02200
C640        C  0.49119333  0.72416744  0.07250063    -0.00100
C641        C  0.97312595  0.71756513  0.06450063    -0.11800
C642        C  0.45104015  0.74952776  0.06638450     0.02100
H643        H  0.53465664  0.81427989  0.08379896     0.15100
H644        H  0.95451936  0.69258162  0.05637461     0.15100
C645        C  0.93300963  0.74050470  0.05354261     0.36700
C646        C  0.55455167  0.76525527  0.08510405     0.36600
N647        N  0.90778126  0.73673453  0.04426543    -0.43600
N648        N  0.58290460  0.77054952  0.09036182    -0.43600
C649        C  0.47225277  0.52986241  0.09601437     0.00000
C650        C  0.43758453  0.50142754  0.08960137    -0.11900
C651        C  0.46151452  0.98155494  0.10065147     0.02200
C652        C  0.48616728  0.97363861  0.09044253    -0.00100
C653        C  0.51967944  0.00280575  0.08290885    -0.11800
C654        C  0.00754116  0.51643367  0.10691005     0.02100
H655        H  0.41756493  0.50745918  0.08311146     0.15100
H656        H  0.04088653  0.98881137  0.08023553     0.15100
C657        C  0.03950290  0.54240394  0.11841673     0.36700
C658        C  0.42710148  0.95339592  0.10907006     0.36600
N659        N  0.06495903  0.56313402  0.12782120    -0.43600
N660        N  0.39942951  0.93089625  0.11578905    -0.43600
C661        C  0.26967832  0.77439108  0.93340404     0.00000
C662        C  0.24094903  0.78007197  0.93982633    -0.11900
C663        C  0.20435704  0.75248378  0.93881397     0.02200
C664        C  0.19568209  0.71797990  0.93164891    -0.00100
C665        C  0.22438268  0.71180867  0.92622288    -0.11800
C666        C  0.26089727  0.73940176  0.92696942     0.02100
H667        H  0.24684934  0.80663632  0.94506866     0.15100
H668        H  0.21828879  0.68528056  0.92075192     0.15100
C669        C  0.28838439  0.73105652  0.92037598     0.36700
C670        C  0.17647452  0.76025299  0.94540114     0.36600
N671        N  0.31030971  0.72422316  0.91507289    -0.43600
N672        N  0.15416079  0.76652924  0.95070828    -0.43600
C673        C  0.00723916  0.53630730  0.90824197     0.00000
C674        C  0.49914726  0.51286092  0.90064347    -0.11900
C675        C  0.48767624  0.96909663  0.90470190     0.02200
C676        C  0.45154582  0.96154082  0.90592836    -0.00100
C677        C  0.44491850  0.99086295  0.90635406    -0.11800
C678        C  0.46361612  0.53098686  0.92229927     0.02100
H679        H  0.04220883  0.51346558  0.90349498     0.15100
H680        H  0.41725245  0.98581371  0.90668158     0.15100
C681        C  0.45955848  0.55737805  0.93451500     0.36700
C682        C  0.49672113  0.94082911  0.90341626     0.36600
N683        N  0.45617615  0.57834846  0.94440804    -0.43600
N684        N  0.50408589  0.91825129  0.90242369    -0.43600
C685        C  0.41081112  0.88322597  0.97994646     0.00000
C686        C  0.44488460  0.88484967  0.98060005    -0.11900
C687        C  0.46236629  0.88643173  0.00015301     0.02200
C688        C  0.44551858  0.88571299  0.01977120    -0.00100
C689        C  0.41254058  0.88631419  0.01900922    -0.11800
C690        C  0.39538377  0.88532149  0.99948865     0.02100
H691        H  0.45756202  0.88388054  0.96568430     0.15100
H692        H  0.39933977  0.88645558  0.03389504     0.15100
C693        C  0.36081483  0.88398428  0.00007293     0.36700
C694        C  0.49639109  0.88669050  0.99961850     0.36600
N695        N  0.33307618  0.88288194  0.00051434    -0.43600
N696        N  0.52374052  0.88699659  0.99916514    -0.43600
C697        C  0.32801809  0.84617007  0.81249313     0.00000
C698        C  0.30976829  0.85947430  0.82527064    -0.11900
C699        C  0.31268873  0.86119978  0.84779021     0.02200
C700        C  0.33434364  0.84950986  0.85823823    -0.00100
C701        C  0.35028078  0.83370264  0.84554499    -0.11800
C702        C  0.34736732  0.83195517  0.82308191     0.02100
H703        H  0.29391409  0.86981423  0.81763559     0.15100
H704        H  0.36629472  0.82347388  0.85309678     0.15100
C705        C  0.36538471  0.81626301  0.81144633     0.36700
C706        C  0.29361656  0.87558929  0.85957921     0.36600
N707        N  0.37979475  0.80358680  0.80218174    -0.43600
N708        N  0.27811466  0.88697445  0.86897104    -0.43600
C709        C  0.35155801  0.94166586  0.64777446     0.00000
C710        C  0.34950769  0.90762411  0.64926207    -0.11900
C711        C  0.34745162  0.89096555  0.66914254     0.02200
C712        C  0.34767522  0.90835901  0.68829712    -0.00100
C713        C  0.35103674  0.94294701  0.68689399    -0.11800
C714        C  0.35305499  0.95963099  0.66697005     0.02100
H715        H  0.34835835  0.89325237  0.63471954     0.15100
H716        H  0.35122442  0.95672328  0.70149691     0.15100
C717        C  0.35431764  0.99398528  0.66671805     0.36700
C718        C  0.34219702  0.85487340  0.66934461     0.36600
N719        N  0.35520885  0.02148632  0.66650080    -0.43600
N720        N  0.33765869  0.82581206  0.66947879    -0.43600
C721        C  0.11559104  0.63570017  0.85849684     0.00000
C722        C  0.10222743  0.65434101  0.84606761    -0.11900
C723        C  0.09957561  0.65149618  0.82356560     0.02200
C724        C  0.11086809  0.62994860  0.81276904    -0.00100
C725        C  0.12587220  0.61281795  0.82516824    -0.11800
C726        C  0.12806908  0.61523721  0.84760305     0.02100
H727        H  0.09257686  0.67050520  0.85398367     0.15100
H728        H  0.13514433  0.59622928  0.81739792     0.15100
C729        C  0.14206362  0.59528550  0.85889975     0.36700
C730        C  0.08453676  0.67038976  0.81217234     0.36600
N731        N  0.15319150  0.57916864  0.86790324    -0.43600
N732        N  0.07245466  0.68559562  0.80311365    -0.43600
C733        C  0.42787917  0.95853604  0.76217156     0.00000
C734        C  0.45598743  0.95292040  0.76966661    -0.11900
C735        C  0.47778404  0.48065898  0.77114209     0.02200
C736        C  0.00016683  0.51681783  0.76498180    -0.00100
C737        C  0.47271501  0.02077171  0.75472394    -0.11800
C738        C  0.43640593  0.99311573  0.75516099     0.02100
H739        H  0.43476309  0.42702774  0.77873093     0.15100
H740        H  0.98405024  0.02646685  0.77396393     0.15100
C741        C  0.40912778  0.00020236  0.74643234     0.36700
C742        C  0.02108933  0.47255506  0.77122993     0.36600
N743        N  0.38739830  0.00592537  0.73930387    -0.43600
N744        N  0.04378528  0.46545031  0.77345440    -0.43600
C745        C  0.24643334  0.77034243  0.73874001     0.00000
C746        C  0.25267614  0.74126011  0.74239965    -0.11900
C747        C  0.22431996  0.70515357  0.74211683     0.02200
C748        C  0.18863095  0.69728583  0.73772536    -0.00100
C749        C  0.18282045  0.72643003  0.73297562    -0.11800
C750        C  0.21105258  0.76253327  0.73371757     0.02100
H751        H  0.27983034  0.74670337  0.74629071     0.15100
H752        H  0.15567980  0.72127251  0.72936652     0.15100
C753        C  0.20282380  0.79082583  0.72933653     0.36700
C754        C  0.23264972  0.67712642  0.74711587     0.36600
N755        N  0.19615114  0.81346383  0.72587287    -0.43600
N756        N  0.23941595  0.65473826  0.75118844    -0.43600
C757        C  0.43951440  0.97691646  0.57458626     0.00000
C758        C  0.46303742  0.52119773  0.58619806    -0.11900
C759        C  0.49953739  0.53050161  0.58484328     0.02200
C760        C  0.99282133  0.47632115  0.57864672    -0.00100
C761        C  0.48142873  0.95432884  0.57516903    -0.11800
C762        C  0.44567499  0.94759693  0.57473866     0.02100
H763        H  0.45706362  0.54073546  0.59330329     0.15100
H764        H  0.97413110  0.91177771  0.59399550     0.15100
C765        C  0.41619223  0.91054898  0.57608860     0.36700
C766        C  0.01303092  0.53507356  0.55983700     0.36600
N767        N  0.39264353  0.88081996  0.57725497    -0.43600
N768        N  0.03560163  0.56277631  0.55327841    -0.43600
C769        C  0.25458793  0.97920988  0.59677449     0.00000
C770        C  0.22543330  0.95519606  0.60973986    -0.11900
C771        C  0.19594679  0.96054264  0.61345981     0.02200
C772        C  0.18673483  0.49342201  0.59935269    -0.00100
C773        C  0.21044331  0.50653062  0.58169056    -0.11800
C774        C  0.25437784  0.00975472  0.58789349     0.02100
H775        H  0.22608611  0.93269500  0.61739335     0.15100
H776        H  0.20725928  0.52327030  0.56976774     0.15100
C777        C  0.26039646  0.51088474  0.55997361     0.36700
C778        C  0.16791751  0.93589189  0.62811652     0.36600
N779        N  0.27891980  0.52242552  0.54497191    -0.43600
N780        N  0.14560591  0.91621297  0.63995219    -0.43600
C781        C  0.08113586  0.52532712  0.65082363     0.00000
C782        C  0.08145942  0.55861970  0.65120668    -0.11900
C783        C  0.08083636  0.57517142  0.67061449     0.02200
C784        C  0.08073509  0.55893855  0.69033611    -0.00100
C785        C  0.07827190  0.52469608  0.68992782    -0.11800
C786        C  0.07806598  0.50775387  0.67055544     0.02100
H787        H  0.08294089  0.57227699  0.63620077     0.15100
H788        H  0.07751338  0.51141190  0.70496343     0.15100
C789        C  0.07663782  0.47333951  0.67151325     0.36700
C790        C  0.08223155  0.60957993  0.66984437     0.36600
N791        N  0.07536093  0.44567653  0.67232172    -0.43600
N792        N  0.08316607  0.63709366  0.66925665    -0.43600
C793        C  0.34287996  0.99082691  0.47761623     0.00000
C794        C  0.36728396  0.53238248  0.49387544    -0.11900
C795        C  0.36316948  0.53001408  0.51627753     0.02200
C796        C  0.34012941  0.98785420  0.52333301    -0.00100
C797        C  0.32917304  0.95642947  0.51081706    -0.11800
C798        C  0.33070842  0.95766564  0.48832538    -0.01500
H799        H  0.38857728  0.55761987  0.48699803     0.15100
H800        H  0.32055651  0.93059228  0.51861769     0.15100
C801        C  0.32166146  0.92493106  0.47685613     0.36700
C802        C  0.38761134  0.56098973  0.52898952     0.36600
N803        N  0.31454306  0.89868094  0.46770831    -0.43600
N804        N  0.40723043  0.58588724  0.53912706    -0.43600
C805        C  0.44573298  0.58095732  0.31694815     0.00000
C806        C  0.41762962  0.54443843  0.31848970    -0.11900
C807        C  0.40131017  0.52838280  0.33829181     0.02200
C808        C  0.41229454  0.54928521  0.35714671    -0.00100
C809        C  0.44166190  0.58541035  0.35564815    -0.11800
C810        C  0.45855242  0.60110206  0.33592016     0.02100
H811        H  0.40746347  0.52866848  0.30394163     0.15100
H812        H  0.45107256  0.60194935  0.36996662     0.15100
C813        C  0.48729353  0.63852835  0.33536241     0.36700
C814        C  0.36924023  0.98697468  0.33488477     0.36600
N815        N  0.51039645  0.66851298  0.33488162    -0.43600
N816        N  0.34565320  0.95722723  0.33428695    -0.43600
C817        C  0.47568805  0.64057896  0.19219373     0.00000
C818        C  0.44273254  0.62404959  0.18044781    -0.11900
C819        C  0.44232378  0.62449270  0.15787863     0.02200
C820        C  0.47541205  0.64166406  0.14641950    -0.00100
C821        C  0.50811690  0.66077804  0.15823548    -0.11800
C822        C  0.50856250  0.66032347  0.18072599     0.02100
H823        H  0.41689591  0.60948930  0.18886813     0.15100
H824        H  0.53402401  0.67537682  0.14988240     0.15100
C825        C  0.54325141  0.67996178  0.19143422     0.36700
C826        C  0.40768388  0.60631018  0.14705179     0.36600
N827        N  0.57110181  0.69580390  0.19995736    -0.43600
N828        N  0.37985251  0.59189439  0.13841501    -0.43600
C829        C  0.10612810  0.96341794  0.48625395     0.00000
C830        C  0.13057823  0.49755190  0.49453288    -0.11900
C831        C  0.13177247  0.49946785  0.51704657     0.02200
C832        C  0.10907651  0.96542659  0.53188667    -0.00100
C833        C  0.07988885  0.93662814  0.52142585    -0.11800
C834        C  0.07802202  0.93541512  0.49893876     0.02100
H835        H  0.15197583  0.51925334  0.48510559     0.15100
H836        H  0.05732604  0.91614721  0.53082667     0.15100
C837        C  0.04556413  0.90605294  0.48948587     0.36700
C838        C  0.16256338  0.53032826  0.52674060     0.36600
N839        N  0.01951835  0.88249732  0.48199501    -0.43600
N840        N  0.18731177  0.55503387  0.53445584    -0.43600
C841        C  0.27088994  0.50665106  0.40959171     0.00000
C842        C  0.24453434  0.97382707  0.39437847    -0.11900
C843        C  0.20686242  0.95951703  0.39685865     0.02200
C844        C  0.19366786  0.96990745  0.41450588    -0.00100
C845        C  0.21872586  0.99551827  0.42896070    -0.11800
C846        C  0.25633382  0.01002472  0.42647575     0.02100
H847        H  0.25331036  0.45751540  0.39125390     0.15100
H848        H  0.20875062  0.00454745  0.44222863     0.15100
C849        C  0.28024725  0.03456216  0.44264822     0.36700
C850        C  0.18239645  0.93546677  0.38071539     0.36600
N851        N  0.30262884  0.58658011  0.44056908    -0.43600
N852        N  0.16270701  0.91635957  0.36773821    -0.43600
C853        C  0.00039236  0.95567081  0.43056547     0.00000
C854        C  0.99767715  0.48306495  0.44057706    -0.11900
C855        C  0.49218983  0.53424386  0.41553816     0.02200
C856        C  0.46120578  0.51490722  0.42850907    -0.00100
C857        C  0.45244856  0.97167821  0.43586177    -0.11800
C858        C  0.47893236  0.96134380  0.43532101     0.02100
H859        H  0.02170062  0.49977732  0.45013427     0.15100
H860        H  0.42655227  0.95388263  0.44365218     0.15100
C861        C  0.47124112  0.92805873  0.44578930     0.36700
C862        C  0.97660236  0.52510599  0.44970539     0.36600
N863        N  0.46466614  0.90121880  0.45417581    -0.43600
N864        N  0.98082249  0.55053559  0.45872851    -0.43600
C865        C  0.48314609  0.71890331  0.26463308     0.00000
C866        C  0.51471117  0.74534804  0.25385705    -0.11900
C867        C  0.52455794  0.78198979  0.25356736     0.02200
C868        C  0.50285371  0.79310556  0.26448276    -0.00100
C869        C  0.96646311  0.75053326  0.27375864    -0.11800
C870        C  0.46211218  0.73000929  0.27615101     0.02100
H871        H  0.53129673  0.73713419  0.24499475     0.15100
H872        H  0.94557178  0.75651742  0.27857196     0.15100
C873        C  0.92164243  0.68691056  0.28099217     0.36700
C874        C  0.55569243  0.80696379  0.24086455     0.36600
N875        N  0.89279726  0.66503635  0.28655605    -0.43600
N876        N  0.58058185  0.82691712  0.23060758    -0.43600
C877        C  0.50165971  0.97793721  0.24176848     0.00000
C878        C  0.46657059  0.97158113  0.23652995    -0.11900
C879        C  0.45803483  0.99925355  0.23741780     0.02200
C880        C  0.46386788  0.52534939  0.24275290    -0.00100
C881        C  0.49530400  0.52864615  0.23285332    -0.11800
C882        C  0.02215535  0.99745707  0.24232176     0.02100
H883        H  0.44516099  0.94440789  0.23257019     0.15100
H884        H  0.02508208  0.54650716  0.23294231     0.15100
C885        C  0.04659803  0.49887323  0.23365536     0.36700
C886        C  0.42140382  0.99060649  0.23242999     0.36600
N887        N  0.07605244  0.50531535  0.23034192    -0.43600
N888        N  0.39203171  0.98357407  0.22832734    -0.43600
C889        C  0.02913825  0.90630546  0.31848437     0.00000
C890        C  0.05567635  0.94307433  0.32169216    -0.11900
C891        C  0.07100651  0.95637076  0.34207402     0.02200
C892        C  0.06009622  0.93267350  0.35989909    -0.00100
C893        C  0.03301510  0.89598954  0.35659346    -0.11800
C894        C  0.01782429  0.88277473  0.33628718     0.02100
H895        H  0.06526485  0.96139174  0.30800100     0.15100
H896        H  0.02400570  0.87697645  0.36993270     0.15100
C897        C  0.48482297  0.87025603  0.33248832     0.36700
C898        C  0.09918684  0.99380909  0.34394286     0.36600
N899        N  0.45822057  0.84252236  0.33134823    -0.43600
N900        N  0.12192037  0.02380703  0.34542776    -0.43600
C901        C  0.49234176  0.86753603  0.19019950     0.00000
C902        C  0.02534753  0.88016164  0.18001085    -0.11900
C903        C  0.52268572  0.87802381  0.15482277     0.02200
C904        C  0.48990969  0.86879218  0.14423920    -0.00100
C905        C  0.45835316  0.85746446  0.15702736    -0.11800
C906        C  0.45925634  0.85680860  0.17956088     0.02100
H907        H  0.05074993  0.89770511  0.18817290     0.15100
H908        H  0.43254774  0.84984376  0.14944754     0.15100
C909        C  0.42599664  0.84638878  0.19119773     0.36700
C910        C  0.05890626  0.90535585  0.14647260     0.36600
N911        N  0.39927957  0.83804832  0.20046018    -0.43600
N912        N  0.08593124  0.92472588  0.13771324    -0.43600
O913        O  0.52425226  0.35414875  0.25567452    -0.71700
O914        O  0.51783727  0.44046553  0.24633176    -0.71900
O915        O  0.53379607  0.41133584  0.27992809    -0.71700
O916        O  0.51321015  0.38679853  0.22211388    -0.71700
O917        O  0.95391858  0.34311751  0.23065850    -0.71700
O918        O  0.97625798  0.36999673  0.29056476    -0.71700
O919        O  0.96122019  0.39691957  0.25559321    -0.71700
O920        O  0.96466237  0.31285895  0.26601844    -0.71800
V921        V  0.52120727  0.39749963  0.25126238     1.35200
V922        V  0.96514878  0.35614768  0.26065325     1.35200
C923        C  0.49540028  0.32467342  0.26082913     0.77600
C924        C  0.48682515  0.43809480  0.24822592     0.77600
C925        C  0.50958265  0.40250821  0.29400554     0.77500
C926        C  0.98010621  0.35338839  0.21725824     0.77500
O927        O  0.62498075  0.44357304  0.41659051    -0.71700
O928        O  0.53875924  0.45164723  0.42472803    -0.71900
O929        O  0.56806010  0.43452286  0.39171755    -0.71700
O930        O  0.59231480  0.45578460  0.44959445    -0.71700
O931        O  0.62672930  0.51296320  0.44261328    -0.71700
O932        O  0.59581119  0.49144254  0.38319939    -0.71700
O933        O  0.57309110  0.50918624  0.41856756    -0.71700
O934        O  0.65356540  0.50013007  0.40686415    -0.71800
V935        V  0.58167468  0.44735628  0.42040902     1.35200
V936        V  0.61180401  0.50225190  0.41286655     1.35200
C937        C  0.65459005  0.47203137  0.41113235     0.77600
C938        C  0.54229370  0.48305823  0.42304639     0.77600
C939        C  0.57500589  0.45845006  0.37773389     0.77500
C940        C  0.61345390  0.48709477  0.45633672     0.77500
O941        O  0.94033957  0.13642946  0.25974968    -0.71700
O942        O  0.94204824  0.04857930  0.24748377    -0.71900
O943        O  0.92875650  0.07642228  0.28234371    -0.71700
O944        O  0.94882620  0.10526735  0.22480891    -0.71700
O945        O  0.00691033  0.13453696  0.23059396    -0.71700
O946        O  0.98624216  0.10233030  0.28995421    -0.71700
O947        O  0.00008498  0.07856814  0.25353190    -0.71700
O948        O  0.99781324  0.16197175  0.26727339    -0.71800
V949        V  0.94105725  0.09230802  0.25384035     1.35200
V950        V  0.99659779  0.11894948  0.26031171     1.35200
C951        C  0.97017548  0.16487194  0.26465314     0.77600
C952        C  0.97243720  0.04942522  0.24835153     0.77600
C953        C  0.95309247  0.08202062  0.29570904     0.77500
C954        C  0.98047760  0.12406214  0.21745799     0.77500
O955        O  0.83441009  0.02338472  0.41747106    -0.71700
O956        O  0.92217363  0.01773349  0.42369262    -0.71900
O957        O  0.89189039  0.03600686  0.39166876    -0.71700
O958        O  0.86833383  0.01047460  0.44919383    -0.71700
O959        O  0.82552213  0.45411454  0.44053550    -0.71700
O960        O  0.86737264  0.97980761  0.38226872    -0.71700
O961        O  0.88066468  0.45601175  0.41818480    -0.71700
O962        O  0.80288956  0.46825016  0.40332146    -0.71800
V963        V  0.87859914  0.02097791  0.42018558     1.35200
V964        V  0.84314693  0.46442760  0.41099516     1.35200
C965        C  0.80546432  0.99544177  0.41087046     0.77600
C966        C  0.91913753  0.98654244  0.42220150     0.77600
C967        C  0.88696624  0.01336695  0.37737275     0.77500
C968        C  0.84658899  0.97887930  0.45545957     0.77500
O969        O  0.66569807  0.02289743  0.59540219    -0.71700
O970        O  0.57798771  0.02394934  0.58066286    -0.71900
O971        O  0.61766953  0.03716392  0.61648519    -0.71700
O972        O  0.62757404  0.01433946  0.55978922    -0.71700
O973        O  0.59716635  0.47496255  0.56156239    -0.71700
O974        O  0.58398575  0.98045075  0.62500532    -0.71700
O975        O  0.54530182  0.48071078  0.58212267    -0.71700
O976        O  0.62824842  0.47991808  0.60007795    -0.71800
V977        V  0.62175139  0.02355123  0.58839970     1.35200
V978        V  0.58782761  0.48250261  0.59100360     1.35200
C979        C  0.66310880  0.99312256  0.60145223     0.77600
C980        C  0.54765827  0.99426077  0.58148811     0.77600
C981        C  0.59778504  0.01370309  0.63015567     0.77500
C982        C  0.61362345  0.98245882  0.55314633     0.77500
O983        O  0.66065831  0.13020147  0.74993678    -0.71700
O984        O  0.56769823  0.04262075  0.75846190    -0.71900
O985        O  0.61332548  0.07292380  0.72515511    -0.71700
O986        O  0.61658098  0.09649112  0.78312148    -0.71700
O987        O  0.59339703  0.13044604  0.77657918    -0.71700
O988        O  0.58107010  0.09769154  0.71734285    -0.71700
O989        O  0.54260097  0.07538793  0.75384630    -0.71700
O990        O  0.63060594  0.15628070  0.73973697    -0.71800
V991        V  0.61419759  0.08614869  0.75390700     1.35200
V992        V  0.58755872  0.11448049  0.74690922     1.35200
C993        C  0.66041927  0.15881526  0.74432385     0.77600
C994        C  0.53905715  0.04511008  0.75786510     0.77600
C995        C  0.59466469  0.07830049  0.71161766     0.77500
C996        C  0.60678005  0.11773906  0.79008364     0.77500
O997        O  0.76968987  0.44038034  0.58981496    -0.71700
O998        O  0.85349115  0.42995219  0.57887151    -0.71900
O999        O  0.81308354  0.42343531  0.61351696    -0.71700
O1000       O  0.80818822  0.44229848  0.55527182    -0.71700
O1001       O  0.84197366  0.50012790  0.55994133    -0.71700
O1002       O  0.85126074  0.47997843  0.61981410    -0.71700
O1003       O  0.88716781  0.48804891  0.58305776    -0.71700
O1004       O  0.80701508  0.49703248  0.59678649    -0.71800
V1005       V  0.81163233  0.43509503  0.58458748     1.35200
V1006       V  0.84592903  0.49019310  0.58993453     1.35200
C1007       C  0.77491386  0.47174228  0.59425515     0.77600
C1008       C  0.88488061  0.45843816  0.57872388     0.77600
C1009       C  0.83459746  0.44709447  0.62640187     0.77500
C1010       C  0.82444821  0.47351422  0.54721588     0.77500
O1011       O  0.77422881  0.33597668  0.74764118    -0.71700
O1012       O  0.86164062  0.42673940  0.75905419    -0.71900
O1013       O  0.82117910  0.39578997  0.72392639    -0.71700
O1014       O  0.81345735  0.37026001  0.78236560    -0.71700
O1015       O  0.84611538  0.34510936  0.77750425    -0.71700
O1016       O  0.85316656  0.37034379  0.71711253    -0.71700
O1017       O  0.89217463  0.39969811  0.75265477    -0.71700
O1018       O  0.80816582  0.31242461  0.74179516    -0.71800
V1019       V  0.81805295  0.38159301  0.75294848     1.35200
V1020       V  0.84908903  0.35725925  0.74728722     1.35200
C1021       C  0.77693658  0.30814686  0.74376669     0.77600
C1022       C  0.89198029  0.42759037  0.75841140     0.77600
C1023       C  0.83925074  0.38905620  0.71064448     0.77500
C1024       C  0.82935774  0.35496252  0.79036532     0.77500
O1025       O  0.83604604  0.30608060  0.92546709    -0.71700
O1026       O  0.92199699  0.39745638  0.91174900    -0.71900
O1027       O  0.89678755  0.35530459  0.94695620    -0.71700
O1028       O  0.86450773  0.34672723  0.89024379    -0.71700
O1029       O  0.83333669  0.37264845  0.89760673    -0.71700
O1030       O  0.87099700  0.38599435  0.95585817    -0.71700
O1031       O  0.89076606  0.42346518  0.91883412    -0.71700
O1032       O  0.81026664  0.33634983  0.93524187    -0.71800
V1033       V  0.87925626  0.35183056  0.91886999     1.35200
V1034       V  0.85179647  0.37894174  0.92681272     1.35200
C1035       C  0.80773454  0.30625079  0.93208159     0.77600
C1036       C  0.92007072  0.42622845  0.91270429     0.77600
C1037       C  0.89142589  0.37318734  0.96096927     0.77500
C1038       C  0.84394524  0.35787866  0.88377987     0.77500
O1039       O  0.93844499  0.30155867  0.08021593    -0.71700
O1040       O  0.93351649  0.38769090  0.09195440    -0.71900
O1041       O  0.92636453  0.34889724  0.05676245    -0.71700
O1042       O  0.94135852  0.33927704  0.11526740    -0.71700
O1043       O  0.99986714  0.37016592  0.11104960    -0.71700
O1044       O  0.98430183  0.38409915  0.05126985    -0.71700
O1045       O  0.99232052  0.41874153  0.08845924    -0.71700
O1046       O  0.99613889  0.33637715  0.07388011    -0.71800
V1047       V  0.93598496  0.34480299  0.08582227     1.35200
V1048       V  0.99199282  0.37651475  0.08113505     1.35200
C1049       C  0.96940405  0.30497627  0.07607248     0.77600
C1050       C  0.96316139  0.41798148  0.09265420     0.77600
C1051       C  0.95174785  0.36962167  0.04428235     0.77500
C1052       C  0.97245220  0.35332758  0.12353907     0.77500
O1053       O  0.63176649  0.18671912  0.92718972    -0.71700
O1054       O  0.54182288  0.09973904  0.91306233    -0.71900
O1055       O  0.57027575  0.13870733  0.94886304    -0.71700
O1056       O  0.60011904  0.14931247  0.89145502    -0.71700
O1057       O  0.62201180  0.11378058  0.89622254    -0.71700
O1058       O  0.59873875  0.11000414  0.95681911    -0.71700
O1059       O  0.56795242  0.06932249  0.92213053    -0.71700
O1060       O  0.65626346  0.15325084  0.93120280    -0.71800
V1061       V  0.58657252  0.14318049  0.92041271     1.35200
V1062       V  0.61093869  0.11238157  0.92655972     1.35200
C1063       C  0.66001333  0.18423632  0.93061321     0.77600
C1064       C  0.54056764  0.06942955  0.91492486     0.77600
C1065       C  0.57843451  0.12250938  0.96264913     0.77500
C1066       C  0.61360457  0.13183382  0.88341580     0.77500
O1067       O  0.52796423  0.19886603  0.08245366    -0.71700
O1068       O  0.53476230  0.11260999  0.09035964    -0.71900
O1069       O  0.54306895  0.15615158  0.05716288    -0.71700
O1070       O  0.52450682  0.15702165  0.11563180    -0.71700
O1071       O  0.96263367  0.11812052  0.11088460    -0.71700
O1072       O  0.98374428  0.10538353  0.05180481    -0.71700
O1073       O  0.97177162  0.06981199  0.08906645    -0.71700
O1074       O  0.96987883  0.15312767  0.07298729    -0.71800
V1075       V  0.53157189  0.15578043  0.08622025     1.35200
V1076       V  0.97297638  0.11245259  0.08120313     1.35200
C1077       C  0.49762834  0.19540739  0.07656361     0.77600
C1078       C  0.50523714  0.08208665  0.09108271     0.77600
C1079       C  0.51946166  0.13382633  0.04455999     0.77500
C1080       C  0.98924083  0.13290377  0.12402476     0.77500
C1081       C  0.53259152  0.12693109  0.02366740     0.00000
C1082       C  0.56988669  0.13741893  0.02195355    -0.11900
C1083       C  0.58504720  0.13349428  0.00279335     0.02200
C1084       C  0.56297098  0.11882250  0.98460442    -0.00100
C1085       C  0.52549403  0.10689743  0.98646137    -0.11800
C1086       C  0.51016701  0.11042863  0.00572528     0.02100
H1087       H  0.58774451  0.14945357  0.03561260     0.15100
H1088       H  0.50825429  0.09590244  0.97244635     0.15100
C1089       C  0.47184364  0.09845506  0.00623927     0.36700
C1090       C  0.62373374  0.14708835  0.00178408     0.36600
N1091       N  0.44107495  0.08879402  0.00661878    -0.43600
N1092       N  0.65476305  0.15808959  0.00100237    -0.43600
C1093       C  0.97638519  0.27420707  0.07518523     0.00000
C1094       C  0.95227420  0.24205621  0.06469311    -0.11900
C1095       C  0.95954263  0.21344957  0.06331103     0.02200
C1096       C  0.99094153  0.21617133  0.07332762    -0.00100
C1097       C  0.45432290  0.21765810  0.06893966    -0.11800
C1098       C  0.00863563  0.27755488  0.08417680     0.02100
H1099       H  0.92814240  0.23955800  0.05717844     0.15100
H1100       H  0.43420309  0.19022156  0.06452023     0.15100
C1101       C  0.40710438  0.23355550  0.06264391     0.36700
C1102       C  0.93461655  0.18210538  0.05100448     0.36600
N1103       N  0.37776469  0.22520652  0.05752819    -0.43600
N1104       N  0.91471328  0.15717080  0.04098526    -0.43600
C1105       C  0.99845038  0.03436094  0.09501278     0.00000
C1106       C  0.96470344  0.00439468  0.10143310    -0.11900
C1107       C  0.94286892  0.46320286  0.08703517     0.02200
C1108       C  0.96585714  0.45306271  0.09708607    -0.00100
C1109       C  0.99742769  0.47974216  0.10760546    -0.11800
C1110       C  0.52803896  0.03879468  0.08442416     0.02100
H1111       H  0.94308312  0.00877401  0.10705789     0.15100
H1112       H  0.50803520  0.47784725  0.11136886     0.15100
C1113       C  0.56119756  0.06670275  0.07453412     0.36700
C1114       C  0.90976294  0.43721054  0.07643391     0.36600
N1115       N  0.58768825  0.08898065  0.06649977    -0.43600
N1116       N  0.88297725  0.41663039  0.06806137    -0.43600
C1117       C  0.77091222  0.27347057  0.93458409     0.00000
C1118       C  0.74137665  0.27880284  0.93940318    -0.11900
C1119       C  0.70517496  0.25048362  0.93857617     0.02200
C1120       C  0.69757873  0.21559700  0.93297348    -0.00100
C1121       C  0.72710212  0.20976703  0.92940409    -0.11800
C1122       C  0.76334837  0.23809950  0.93021095     0.02100
H1123       H  0.74630542  0.30560788  0.94327352     0.15100
H1124       H  0.72196188  0.18291337  0.92543738     0.15100
C1125       C  0.79192753  0.22996680  0.92632765     0.36700
C1126       C  0.67657946  0.25801747  0.94377475     0.36600
N1127       N  0.81477325  0.22330759  0.92333591    -0.43600
N1128       N  0.65369549  0.26407295  0.94803091    -0.43600
C1129       C  0.50924736  0.03385321  0.90899940     0.00000
C1130       C  0.02044667  0.98282665  0.92621760    -0.11900
C1131       C  0.98661850  0.47155052  0.90525090     0.02200
C1132       C  0.95047081  0.46328714  0.90797515    -0.00100
C1133       C  0.94304179  0.49209255  0.90857777    -0.11800
C1134       C  0.99172305  0.00033300  0.89875923     0.02100
H1135       H  0.54372292  0.01016985  0.90569249     0.15100
H1136       H  0.91524430  0.48642849  0.91002273     0.15100
C1137       C  0.98961813  0.02695028  0.88546548     0.36700
C1138       C  0.99651529  0.44386750  0.90432887     0.36600
N1139       N  0.98796032  0.04826630  0.87476171    -0.43600
N1140       N  0.00465763  0.42182301  0.90373536    -0.43600
C1141       C  0.90979605  0.37818102  0.98236679     0.00000
C1142       C  0.94045347  0.37347737  0.98358144    -0.11900
C1143       C  0.95645777  0.37318857  0.00334119     0.02200
C1144       C  0.94151641  0.37695538  0.02263572    -0.00100
C1145       C  0.91223149  0.38356151  0.02139898    -0.11800
C1146       C  0.89682969  0.38488545  0.00163969     0.02100
H1147       H  0.95160698  0.36908674  0.96897625     0.15100
H1148       H  0.90057239  0.38676327  0.03614486     0.15100
C1149       C  0.86688564  0.39167567  0.00177168     0.36700
C1150       C  0.98660112  0.36667319  0.00347641     0.36600
N1151       N  0.84303640  0.39739020  0.00190441    -0.43600
N1152       N  0.01080887  0.36149892  0.00360633    -0.43600
C1153       C  0.82925435  0.35137041  0.81438125     0.00000
C1154       C  0.81480173  0.36867181  0.82706264    -0.11900
C1155       C  0.81756887  0.37010119  0.84963313     0.02200
C1156       C  0.83499016  0.35383132  0.86023683    -0.00100
C1157       C  0.84740999  0.33472189  0.84758640    -0.11800
C1158       C  0.84492817  0.33353298  0.82510509     0.02100
H1159       H  0.80217447  0.38231807  0.81931399     0.15100
H1160       H  0.86027406  0.32121211  0.85521667     0.15100
C1161       C  0.85938062  0.31430527  0.81357761     0.36700
C1162       C  0.80321957  0.38928474  0.86129964     0.36600
N1163       N  0.87101733  0.29889919  0.80437151    -0.43600
N1164       N  0.79160180  0.40462079  0.87060406    -0.43600
C1165       C  0.83994502  0.43424835  0.64797630     0.00000
C1166       C  0.82797017  0.39689405  0.65049266    -0.11900
C1167       C  0.82981855  0.38194298  0.67030616     0.02200
C1168       C  0.84374679  0.40420609  0.68844238    -0.00100
C1169       C  0.85703490  0.44166819  0.68591057    -0.11800
C1170       C  0.85579608  0.45683173  0.66594364     0.02100
H1171       H  0.81637197  0.37882340  0.63693801     0.15100
H1172       H  0.86767746  0.45911355  0.69980453     0.15100
C1173       C  0.86987363  0.49532298  0.66461453     0.36700
C1174       C  0.81498550  0.34330342  0.67193692     0.36600
N1175       N  0.88133759  0.52624546  0.66355929    -0.43600
N1176       N  0.80297725  0.31231520  0.67324665    -0.43600
C1177       C  0.61620994  0.13158956  0.85941045     0.00000
C1178       C  0.59886990  0.14658539  0.84715715    -0.11900
C1179       C  0.59639042  0.14387049  0.82465646     0.02200
C1180       C  0.61136501  0.12569072  0.81367567    -0.00100
C1181       C  0.63039590  0.11246337  0.82585432    -0.11800
C1182       C  0.63291588  0.11521475  0.84831142     0.02100
H1183       H  0.58606486  0.15977684  0.85520337     0.15100
H1184       H  0.64310727  0.09914604  0.81784864     0.15100
C1185       C  0.65281696  0.10097469  0.85941583     0.36700
C1186       C  0.57761639  0.15924006  0.81345456     0.36600
N1187       N  0.66893254  0.08967998  0.86826605    -0.43600
N1188       N  0.56266053  0.17172057  0.80452251    -0.43600
C1189       C  0.92754596  0.45925248  0.76386159     0.00000
C1190       C  0.95655648  0.45296130  0.76812681    -0.11900
C1191       C  0.00251995  0.95944886  0.76226899     0.02200
C1192       C  0.50130045  0.01467776  0.76077823    -0.00100
C1193       C  0.97071450  0.52333831  0.76350482    -0.11800
C1194       C  0.93471576  0.49499357  0.76259739     0.02100
H1195       H  0.96197997  0.90468568  0.75586539     0.15100
H1196       H  0.46536756  0.54371283  0.74459258     0.15100
C1197       C  0.90636152  0.50343164  0.75862374     0.36700
C1198       C  0.52007680  0.97232035  0.77549873     0.36600
N1199       N  0.88375232  0.51032642  0.75535326    -0.43600
N1200       N  0.54211394  0.96565199  0.78081560    -0.43600
C1201       C  0.74573268  0.27041176  0.74283578     0.00000
C1202       C  0.75140793  0.24362796  0.73326505    -0.11900
C1203       C  0.72515746  0.20665632  0.73453521     0.02200
C1204       C  0.69207978  0.19593186  0.74501963    -0.00100
C1205       C  0.68647100  0.22247501  0.75472934    -0.11800
C1206       C  0.71292415  0.25924519  0.75399140     0.02100
H1207       H  0.77682952  0.25151413  0.72500354     0.15100
H1208       H  0.66106386  0.21428651  0.76313562     0.15100
C1209       C  0.70639652  0.28436962  0.76587014     0.36700
C1210       C  0.73244934  0.18044927  0.72473521     0.36600
N1211       N  0.70121613  0.30436026  0.77558650    -0.43600
N1212       N  0.73836639  0.15937246  0.71701476    -0.43600
C1213       C  0.91964444  0.45951174  0.57479151     0.00000
C1214       C  0.95287507  0.98178184  0.56907683    -0.11900
C1215       C  0.98929784  0.99108208  0.57128519     0.02200
C1216       C  0.51169679  0.98997822  0.57600925    -0.00100
C1217       C  0.96356932  0.44256403  0.58571397    -0.11800
C1218       C  0.92733990  0.43414967  0.58400972     0.02100
H1219       H  0.94694653  0.00179416  0.56250500     0.15100
H1220       H  0.48649470  0.45259329  0.56194407     0.15100
C1221       C  0.89909837  0.40097117  0.59361638     0.36700
C1222       C  0.53506409  0.05634014  0.57399841     0.36600
N1223       N  0.87644643  0.37446176  0.60137800    -0.43600
N1224       N  0.55862347  0.08612818  0.57413206    -0.43600
C1225       C  0.74548454  0.48072036  0.59551361     0.00000
C1226       C  0.71419435  0.45917057  0.60767464    -0.11900
C1227       C  0.68727348  0.46872933  0.61004865     0.02200
C1228       C  0.69465786  0.98711228  0.60290487    -0.00100
C1229       C  0.72422129  0.00647996  0.58898139    -0.11800
C1230       C  0.74983257  0.51277833  0.58577037     0.02100
H1231       H  0.71101641  0.43510713  0.61561336     0.15100
H1232       H  0.72612695  0.02885797  0.57965275     0.15100
C1233       C  0.77955718  0.01671108  0.57091170     0.36700
C1234       C  0.65607949  0.44536513  0.62324158     0.36600
N1235       N  0.80301236  0.03343286  0.55891455    -0.43600
N1236       N  0.63107518  0.42651434  0.63376422    -0.43600
C1237       C  0.59102002  0.02677812  0.65105235     0.00000
C1238       C  0.59254692  0.06065462  0.65127379    -0.11900
C1239       C  0.59099193  0.07700956  0.67054860     0.02200
C1240       C  0.58879271  0.05999925  0.69032775    -0.00100
C1241       C  0.58496507  0.02515726  0.69002480    -0.11800
C1242       C  0.58550372  0.00834344  0.67073815     0.02100
H1243       H  0.59574300  0.07492677  0.63625409     0.15100
H1244       H  0.58246657  0.01125527  0.70510301     0.15100
C1245       C  0.58212155  0.97305466  0.67176592     0.36700
C1246       C  0.59362118  0.11196928  0.66963304     0.36600
N1247       N  0.57919362  0.94465909  0.67261515    -0.43600
N1248       N  0.59552538  0.13992305  0.66887597    -0.43600
C1249       C  0.83001391  0.47693118  0.47757376     0.00000
C1250       C  0.85541735  0.00485538  0.49226871    -0.11900
C1251       C  0.85239341  0.00268624  0.51470715     0.02200
C1252       C  0.82380158  0.47647169  0.52324760    -0.00100
C1253       C  0.80679869  0.44400026  0.51117581    -0.11800
C1254       C  0.80978538  0.44395522  0.48869835    -0.01500
H1255       H  0.87177960  0.03150715  0.48509931     0.15100
H1256       H  0.79207533  0.41804058  0.51935241     0.15100
C1257       C  0.79290430  0.40968433  0.47769527     0.36700
C1258       C  0.87190687  0.03575123  0.52683553     0.36600
N1259       N  0.77924776  0.38214487  0.46892025    -0.43600
N1260       N  0.88774889  0.06231284  0.53647805    -0.43600
C1261       C  0.94098036  0.06315006  0.31692982     0.00000
C1262       C  0.91137338  0.02714350  0.31727589    -0.11900
C1263       C  0.89418029  0.00942297  0.33659378     0.02200
C1264       C  0.90598865  0.02798431  0.35622643    -0.00100
C1265       C  0.93691389  0.06334989  0.35586965    -0.11800
C1266       C  0.95440607  0.08079254  0.33660477     0.02100
H1267       H  0.90091438  0.01301474  0.30220503     0.15100
H1268       H  0.94719548  0.07801640  0.37078956     0.15100
C1269       C  0.98445649  0.11756838  0.33736987     0.36700
C1270       C  0.84781794  0.47677026  0.33399604     0.36600
N1271       N  0.00853382  0.14707188  0.33796761    -0.43600
N1272       N  0.81900997  0.45146468  0.33309125    -0.43600
C1273       C  0.98443837  0.13128501  0.19378327     0.00000
C1274       C  0.95264839  0.12139599  0.18160799    -0.11900
C1275       C  0.95312121  0.12237357  0.15902940     0.02200
C1276       C  0.98605214  0.13396541  0.14794262    -0.00100
C1277       C  0.01810449  0.14568206  0.16020174    -0.11800
C1278       C  0.01756969  0.14422192  0.18269270     0.02100
H1279       H  0.92677070  0.11174931  0.18972595     0.15100
H1280       H  0.04402195  0.15497151  0.15221115     0.15100
C1281       C  0.05120339  0.15447896  0.19373427     0.36700
C1282       C  0.91939044  0.11083727  0.14780540     0.36600
N1283       N  0.07822210  0.16260363  0.20248863    -0.43600
N1284       N  0.89227435  0.10155689  0.13887087    -0.43600
C1285       C  0.61973312  0.49204406  0.47999047     0.00000
C1286       C  0.64150639  0.00330800  0.49424106    -0.11900
C1287       C  0.64452197  0.00382448  0.51675701     0.02200
C1288       C  0.61790064  0.49976129  0.52535736    -0.00100
C1289       C  0.60876086  0.46626490  0.51642676    -0.11800
C1290       C  0.60996286  0.46219318  0.49414208     0.02100
H1291       H  0.66361602  0.02397522  0.48467662     0.15100
H1292       H  0.60007410  0.44291886  0.52685715     0.15100
C1293       C  0.60073296  0.42673745  0.48644860     0.36700
C1294       C  0.67778477  0.03190312  0.52623230     0.36600
N1295       N  0.59332598  0.39826653  0.48042050    -0.43600
N1296       N  0.70449036  0.05430614  0.53382289    -0.43600
C1297       C  0.76823681  0.99091591  0.41120266     0.00000
C1298       C  0.73652042  0.46285553  0.39675172    -0.11900
C1299       C  0.70001690  0.45402835  0.39851305     0.02200
C1300       C  0.69114561  0.47563699  0.41106475    -0.00100
C1301       C  0.71940539  0.50595860  0.42158335    -0.11800
C1302       C  0.75586719  0.51458445  0.42011603     0.02100
H1303       H  0.74857553  0.95022396  0.38624364     0.15100
H1304       H  0.71285544  0.52315677  0.43108176     0.15100
C1305       C  0.78286402  0.54499576  0.43222882     0.36700
C1306       C  0.67243347  0.42352076  0.38675182     0.36600
N1307       N  0.80333895  0.05438145  0.45377816    -0.43600
N1308       N  0.65034252  0.39906111  0.37729708    -0.43600
C1309       C  0.51272025  0.49166669  0.42520973     0.00000
C1310       C  0.51798585  0.01613751  0.41504596    -0.11900
C1311       C  0.97768412  0.99666442  0.43963665     0.02200
C1312       C  0.94897554  0.97853598  0.42501828    -0.00100
C1313       C  0.93728683  0.44194918  0.41506470    -0.11800
C1314       C  0.96393647  0.43199679  0.41686723     0.02100
H1315       H  0.54326438  0.03361106  0.40658429     0.15100
H1316       H  0.91389561  0.42578843  0.40494043     0.15100
C1317       C  0.96010389  0.40181554  0.40446532     0.36700
C1318       C  0.49824716  0.05839232  0.40378766     0.36600
N1319       N  0.95688055  0.37761133  0.39447970    -0.43600
N1320       N  0.50371526  0.08404635  0.39434916    -0.43600
C1321       C  0.97536477  0.20199661  0.26580550     0.00000
C1322       C  0.00946821  0.23131719  0.25933702    -0.11900
C1323       C  0.01676586  0.26719948  0.25942275     0.02200
C1324       C  0.98972325  0.27472211  0.26633776    -0.00100
C1325       C  0.46319949  0.26108773  0.27471074    -0.11800
C1326       C  0.94864321  0.20943645  0.27319857     0.02100
H1327       H  0.03045927  0.22611208  0.25357765     0.15100
H1328       H  0.44628437  0.26795405  0.28431313     0.15100
C1329       C  0.42496813  0.19825739  0.28724620     0.36700
C1330       C  0.05167892  0.29529101  0.25152860     0.36600
N1331       N  0.40105997  0.17698418  0.29761884    -0.43600
N1332       N  0.07967650  0.31771000  0.24514392    -0.43600
C1333       C  0.98191656  0.45636818  0.24392632     0.00000
C1334       C  0.94633485  0.45066239  0.24675931    -0.11900
C1335       C  0.93935802  0.47930473  0.24597082     0.02200
C1336       C  0.97762093  0.01803692  0.24451703    -0.00100
C1337       C  0.01363356  0.02510524  0.24147009    -0.11800
C1338       C  0.50325618  0.50057318  0.23377344     0.02100
H1339       H  0.92390664  0.42393173  0.25072311     0.15100
H1340       H  0.54249346  0.06793501  0.25119448     0.15100
C1341       C  0.56574219  0.02200656  0.25162262     0.36700
C1342       C  0.90316047  0.47213543  0.25100555     0.36600
N1343       N  0.59497998  0.02893006  0.25600513    -0.43600
N1344       N  0.87412795  0.46631575  0.25504821    -0.43600
C1345       C  0.52176351  0.41754132  0.31600694     0.00000
C1346       C  0.55046645  0.45376042  0.31786087    -0.11900
C1347       C  0.56779255  0.46823020  0.33760163     0.02200
C1348       C  0.55694259  0.44620721  0.35618418    -0.00100
C1349       C  0.52728045  0.41026611  0.35435377    -0.11800
C1350       C  0.50980960  0.39597302  0.33465504     0.02100
H1351       H  0.56010422  0.47071881  0.30357708     0.15100
H1352       H  0.51785474  0.39272522  0.36838567     0.15100
C1353       C  0.98101173  0.34747800  0.33559125     0.36700
C1354       C  0.59743371  0.50520945  0.33805821     0.36600
N1355       N  0.95835298  0.31735232  0.33479460    -0.43600
N1356       N  0.62119859  0.53488765  0.33840224    -0.43600
C1357       C  0.97604760  0.34864309  0.19336424     0.00000
C1358       C  0.50620814  0.39076917  0.17834782    -0.11900
C1359       C  0.00797458  0.36292886  0.15843769     0.02200
C1360       C  0.97490044  0.35054937  0.14744110    -0.00100
C1361       C  0.94250587  0.33632081  0.15980088    -0.11800
C1362       C  0.94282529  0.33564113  0.18239914     0.02100
H1363       H  0.52919867  0.41362654  0.18595112     0.15100
H1364       H  0.91659124  0.32667407  0.15183607     0.15100
C1365       C  0.90886871  0.32283710  0.19375683     0.36700
C1366       C  0.53406886  0.41935084  0.14403096     0.36600
N1367       N  0.88159661  0.31268801  0.20279408    -0.43600
N1368       N  0.55714041  0.44332464  0.13457296    -0.43600
O1369       O  0.53708096  0.85820117  0.25626634    -0.71700
O1370       O  0.53621354  0.94656263  0.24445788    -0.71900
O1371       O  0.54909440  0.91735076  0.27922812    -0.71700
O1372       O  0.52861064  0.89034664  0.22134341    -0.71700
O1373       O  0.96865937  0.84950911  0.22897006    -0.71700
O1374       O  0.98616337  0.87204923  0.28970569    -0.71700
O1375       O  0.97357069  0.90122756  0.25498528    -0.71700
O1376       O  0.97665038  0.81712334  0.26418087    -0.71800
V1377       V  0.53667067  0.90250328  0.25054141     1.35200
V1378       V  0.97744128  0.86043062  0.25938189     1.35200
C1379       C  0.50739345  0.82983949  0.26164546     0.77600
C1380       C  0.50609373  0.94615575  0.24568702     0.77600
C1381       C  0.52473980  0.90997136  0.29306177     0.77500
C1382       C  0.99586009  0.86096192  0.21620639     0.77500
O1383       O  0.62698191  0.93836150  0.41846732    -0.71700
O1384       O  0.53946873  0.94470758  0.42461592    -0.71900
O1385       O  0.57347705  0.93316873  0.39202261    -0.71700
O1386       O  0.58956898  0.94508539  0.45117709    -0.71700
O1387       O  0.62325448  0.00329907  0.44779762    -0.71700
O1388       O  0.60304048  0.99115117  0.38645665    -0.71700
O1389       O  0.57371704  0.00289096  0.42113761    -0.71700
O1390       O  0.65673317  0.99647531  0.41294970    -0.71800
V1391       V  0.58311471  0.94140714  0.42143220     1.35200
V1392       V  0.61374401  0.99728397  0.41710471     1.35200
C1393       C  0.65719911  0.96761566  0.41528300     0.77600
C1394       C  0.54257236  0.97599660  0.42368426     0.77600
C1395       C  0.58267762  0.95914924  0.37921160     0.77500
C1396       C  0.60806845  0.97530494  0.45996526     0.77500
O1397       O  0.94485639  0.64055214  0.26094998    -0.71700
O1398       O  0.93763559  0.54953168  0.24631503    -0.71900
O1399       O  0.92675071  0.57733541  0.28206142    -0.71700
O1400       O  0.95137901  0.60992203  0.22529128    -0.71700
O1401       O  0.00890682  0.63332325  0.23187702    -0.71700
O1402       O  0.98334854  0.59834656  0.29040438    -0.71700
O1403       O  0.99511523  0.57412563  0.25360725    -0.71700
O1404       O  0.00162150  0.66133129  0.26885164    -0.71800
V1405       V  0.94121945  0.59490007  0.25395167     1.35200
V1406       V  0.99610510  0.61652035  0.26118705     1.35200
C1407       C  0.97575806  0.66714740  0.26624795     0.77600
C1408       C  0.96630246  0.54720734  0.24720406     0.77600
C1409       C  0.94974256  0.57967949  0.29558862     0.77500
C1410       C  0.98354020  0.62602410  0.21843255     0.77500
O1411       O  0.83101895  0.52357577  0.41464538    -0.71700
O1412       O  0.91605319  0.51375778  0.42279100    -0.71900
O1413       O  0.88799159  0.53216821  0.38981798    -0.71700
O1414       O  0.86287584  0.51059326  0.44747905    -0.71700
O1415       O  0.83315511  0.95399174  0.44125636    -0.71700
O1416       O  0.86148513  0.47522282  0.38161990    -0.71700
O1417       O  0.88860016  0.96015090  0.41771016    -0.71700
O1418       O  0.80787192  0.96867130  0.40512296    -0.71800
V1419       V  0.87388774  0.51906916  0.41841582     1.35200
V1420       V  0.84967962  0.96671179  0.41166433     1.35200
C1421       C  0.80163677  0.49601929  0.40814522     0.77600
C1422       C  0.91177361  0.48197437  0.42215140     0.77600
C1423       C  0.88207375  0.50837368  0.37614413     0.77500
C1424       C  0.83928152  0.47992582  0.45415993     0.77500
O1425       O  0.66259054  0.53657718  0.59176832    -0.71700
O1426       O  0.57460989  0.53940087  0.58058889    -0.71900
O1427       O  0.61482911  0.54756494  0.61530570    -0.71700
O1428       O  0.62398878  0.53299777  0.55696590    -0.71700
O1429       O  0.59634047  0.95675059  0.56665713    -0.71700
O1430       O  0.57757889  0.49016741  0.62027811    -0.71700
O1431       O  0.54775031  0.96653485  0.58795824    -0.71700
O1432       O  0.63183387  0.96632329  0.60419819    -0.71800
V1433       V  0.61859729  0.53815525  0.58630673     1.35200
V1434       V  0.59080491  0.96865939  0.59591570     1.35200
C1435       C  0.65967332  0.50657221  0.59765847     0.77600
C1436       C  0.54467520  0.50939363  0.57930499     0.77600
C1437       C  0.59254173  0.52250499  0.62738563     0.77500
C1438       C  0.61293647  0.50234433  0.54898418     0.77500
O1439       O  0.64757170  0.62155842  0.74840764    -0.71700
O1440       O  0.55262460  0.53931321  0.75921220    -0.71900
O1441       O  0.59657417  0.56569466  0.72502871    -0.71700
O1442       O  0.60475407  0.59231645  0.78276408    -0.71700
O1443       O  0.58218376  0.62694700  0.77660954    -0.71700
O1444       O  0.57054294  0.59668542  0.71703347    -0.71700
O1445       O  0.52996114  0.57389508  0.75297522    -0.71700
O1446       O  0.62138201  0.65228103  0.74024465    -0.71800
V1447       V  0.59998166  0.58040814  0.75365569     1.35200
V1448       V  0.57653037  0.61186851  0.74681326     1.35200
C1449       C  0.65017380  0.65149576  0.74290257     0.77600
C1450       C  0.52497406  0.54326154  0.75787421     0.77600
C1451       C  0.58145459  0.57513030  0.71120763     0.77500
C1452       C  0.59528739  0.61374490  0.78992357     0.77500
O1453       O  0.77216320  0.92599223  0.58963224    -0.71700
O1454       O  0.85755048  0.91761747  0.57964828    -0.71900
O1455       O  0.81422874  0.90780621  0.61343533    -0.71700
O1456       O  0.81366698  0.93140563  0.55561482    -0.71700
O1457       O  0.84636914  0.98876170  0.56221081    -0.71700
O1458       O  0.85153037  0.96386814  0.62143045    -0.71700
O1459       O  0.89020996  0.97532562  0.58558710    -0.71700
O1460       O  0.80848810  0.98205913  0.59844311    -0.71800
V1461       V  0.81487128  0.92174000  0.58480921     1.35200
V1462       V  0.84820781  0.97637689  0.59189504     1.35200
C1463       C  0.77668984  0.95668813  0.59515947     0.77600
C1464       C  0.88872628  0.94632409  0.58055366     0.77600
C1465       C  0.83465423  0.93055907  0.62706025     0.77500
C1466       C  0.83034382  0.96332335  0.54859111     0.77500
O1467       O  0.77938729  0.82241867  0.74645819    -0.71700
O1468       O  0.87094689  0.90817539  0.75819592    -0.71900
O1469       O  0.82864872  0.88086321  0.72352730    -0.71700
O1470       O  0.82058825  0.85280988  0.78106190    -0.71700
O1471       O  0.85237695  0.82682359  0.77550187    -0.71700
O1472       O  0.85362317  0.84908658  0.71500549    -0.71700
O1473       O  0.89786146  0.87880695  0.74868324    -0.71700
O1474       O  0.80913430  0.79402577  0.74164547    -0.71800
V1475       V  0.82529891  0.86542965  0.75204104     1.35200
V1476       V  0.85254445  0.83756960  0.74523564     1.35200
C1477       C  0.77924822  0.79299210  0.74314558     0.77600
C1478       C  0.90019860  0.90730798  0.75570584     0.77600
C1479       C  0.84256050  0.87065970  0.70943879     0.77500
C1480       C  0.83668315  0.83745103  0.78862844     0.77500
O1481       O  0.83326735  0.78933764  0.92351037    -0.71700
O1482       O  0.92888102  0.87112414  0.91235694    -0.71900
O1483       O  0.89429172  0.83166598  0.94713923    -0.71700
O1484       O  0.87003994  0.82711354  0.88871024    -0.71700
O1485       O  0.84393252  0.85865496  0.89455815    -0.71700
O1486       O  0.88023789  0.87307645  0.95269263    -0.71700
O1487       O  0.90472107  0.90526260  0.91451808    -0.71700
O1488       O  0.81618165  0.82735974  0.93274659    -0.71800
V1489       V  0.88115480  0.83028921  0.91810915     1.35200
V1490       V  0.86148529  0.86524921  0.92364495     1.35200
C1491       C  0.80800635  0.79516731  0.92947567     0.77600
C1492       C  0.93218183  0.90238534  0.91122248     0.77600
C1493       C  0.89481107  0.85515425  0.95952179     0.77500
C1494       C  0.85262202  0.84141131  0.88146564     0.77500
O1495       O  0.95120709  0.80677091  0.08010565    -0.71700
O1496       O  0.95033007  0.89569804  0.09049453    -0.71900
O1497       O  0.93910898  0.85336718  0.05620305    -0.71700
O1498       O  0.95767766  0.84716329  0.11450528    -0.71700
O1499       O  0.01588877  0.87924308  0.10932267    -0.71700
O1500       O  0.99687127  0.88323498  0.04870642    -0.71700
O1501       O  0.00798944  0.92466683  0.08319558    -0.71700
O1502       O  0.00943364  0.83962730  0.07460340    -0.71800
V1503       V  0.95062387  0.85122744  0.08511829     1.35200
V1504       V  0.00634955  0.88099861  0.07901725     1.35200
C1505       C  0.98178660  0.80886538  0.07651786     0.77600
C1506       C  0.98015959  0.92573253  0.08850035     0.77600
C1507       C  0.96393842  0.86953784  0.04252065     0.77500
C1508       C  0.98915768  0.86221897  0.12228642     0.77500
O1509       O  0.62791510  0.68967122  0.92393252    -0.71700
O1510       O  0.53276795  0.60579881  0.91493532    -0.71900
O1511       O  0.56784299  0.64763472  0.94861742    -0.71700
O1512       O  0.59013862  0.64929851  0.89011921    -0.71700
O1513       O  0.61513914  0.61678798  0.89625762    -0.71700
O1514       O  0.58572976  0.60937837  0.95570290    -0.71700
O1515       O  0.55749744  0.57254252  0.91954813    -0.71700
O1516       O  0.64704300  0.65307086  0.93268646    -0.71800
V1517       V  0.58024737  0.64766546  0.91963029     1.35200
V1518       V  0.60120634  0.61390512  0.92602218     1.35200
C1519       C  0.65412737  0.68498675  0.92945957     0.77600
C1520       C  0.52991449  0.57466670  0.91522369     0.77600
C1521       C  0.56981456  0.62633681  0.96182729     0.77500
C1522       C  0.60512581  0.63265671  0.88283687     0.77500
O1523       O  0.52175988  0.68932096  0.08041710    -0.71700
O1524       O  0.51215937  0.59600395  0.09331666    -0.71900
O1525       O  0.52905717  0.63830706  0.05829348    -0.71700
O1526       O  0.50980584  0.64853232  0.11546238    -0.71700
O1527       O  0.96688267  0.62001207  0.11237201    -0.71700
O1528       O  0.98379082  0.60826755  0.05247169    -0.71700
O1529       O  0.96833269  0.56924333  0.08862416    -0.71700
O1530       O  0.97767649  0.65808542  0.07564250    -0.71800
V1531       V  0.51714214  0.64264074  0.08664704     1.35200
V1532       V  0.97534443  0.61459649  0.08236095     1.35200
C1533       C  0.49336969  0.69042024  0.07497141     0.77600
C1534       C  0.48060653  0.56775440  0.09222802     0.77600
C1535       C  0.50452261  0.62189006  0.04464253     0.77500
C1536       C  0.99385326  0.63303947  0.12525624     0.77500
C1537       C  0.51614625  0.61670908  0.02296842     0.00000
C1538       C  0.54507177  0.60947158  0.02172217    -0.11900
C1539       C  0.56236273  0.61108693  0.00210528     0.02200
C1540       C  0.55127057  0.62080388  0.98313190    -0.00100
C1541       C  0.52133447  0.62653555  0.98433035    -0.11800
C1542       C  0.50369059  0.62429513  0.00385840     0.02100
H1543       H  0.55504281  0.60362530  0.03634963     0.15100
H1544       H  0.51194779  0.63355268  0.96989935     0.15100
C1545       C  0.47457347  0.63232698  0.00404604     0.36700
C1546       C  0.59263501  0.60476413  0.00217519     0.36600
N1547       N  0.45123125  0.63878503  0.00422310    -0.43600
N1548       N  0.61691896  0.59970383  0.00229003    -0.43600
C1549       C  0.98773246  0.77755137  0.07577340     0.00000
C1550       C  0.02000639  0.78191325  0.08504335    -0.11900
C1551       C  0.02852006  0.75420939  0.08464871     0.02200
C1552       C  0.00439753  0.72103060  0.07485044    -0.00100
C1553       C  0.45750577  0.72041448  0.06598270    -0.11800
C1554       C  0.96466178  0.74529942  0.06493290     0.02100
H1555       H  0.03854160  0.80707938  0.09303997     0.15100
H1556       H  0.43546253  0.69424620  0.06092793     0.15100
C1557       C  0.41620790  0.74373614  0.05932632     0.36700
C1558       C  0.06141167  0.76026479  0.09504738     0.36600
N1559       N  0.38830994  0.73907829  0.05358488    -0.43600
N1560       N  0.08790026  0.76530904  0.10332706    -0.43600
C1561       C  0.98606389  0.52692293  0.09527112     0.00000
C1562       C  0.95324558  0.49974516  0.08602874    -0.11900
C1563       C  0.95764969  0.96870106  0.09974612     0.02200
C1564       C  0.98489314  0.96238961  0.09174146    -0.00100
C1565       C  0.01920751  0.99265623  0.08636455    -0.11800
C1566       C  0.49696474  0.52075402  0.10495248     0.02100
H1567       H  0.93578575  0.50705170  0.07730528     0.15100
H1568       H  0.53927717  0.99758100  0.07497795     0.15100
C1569       C  0.53167145  0.54790176  0.11339422     0.36700
C1570       C  0.92215870  0.93939344  0.10589001     0.36600
N1571       N  0.55945016  0.56956830  0.12028473    -0.43600
N1572       N  0.89363170  0.91598389  0.11080135    -0.43600
C1573       C  0.76890606  0.76657931  0.93102792     0.00000
C1574       C  0.74252440  0.77687899  0.92756497    -0.11900
C1575       C  0.70511597  0.75144771  0.92742688     0.02200
C1576       C  0.69305425  0.71454608  0.93116311    -0.00100
C1577       C  0.71957848  0.70452708  0.93526060    -0.11800
C1578       C  0.75697189  0.72989708  0.93501641     0.02100
H1579       H  0.75116889  0.80503074  0.92428309     0.15100
H1580       H  0.71127184  0.67639287  0.93823865     0.15100
C1581       C  0.78232879  0.71752433  0.93911814     0.36700
C1582       C  0.68011547  0.76412522  0.92295672     0.36600
N1583       N  0.80260799  0.70754387  0.94241004    -0.43600
N1584       N  0.66026550  0.77451042  0.91931246    -0.43600
C1585       C  0.49606694  0.54016725  0.91141935     0.00000
C1586       C  0.01437932  0.50773507  0.90494545    -0.11900
C1587       C  0.99504549  0.94624734  0.92314689     0.02200
C1588       C  0.96678117  0.93644693  0.90833839    -0.00100
C1589       C  0.96623567  0.96360159  0.89568799    -0.11800
C1590       C  0.97099230  0.52830469  0.90908124     0.02100
H1591       H  0.52428825  0.51975506  0.89232019     0.15100
H1592       H  0.94422565  0.95617562  0.88438154     0.15100
C1593       C  0.96166675  0.55611181  0.91211321     0.36700
C1594       C  0.99642731  0.91972898  0.93696441     0.36600
N1595       N  0.95404309  0.57828358  0.91461253    -0.43600
N1596       N  0.99755401  0.89856267  0.94808619    -0.43600
C1597       C  0.91416860  0.86166025  0.98074688     0.00000
C1598       C  0.93429588  0.84408376  0.98470454    -0.11900
C1599       C  0.95321634  0.84863419  0.00401617     0.02200
C1600       C  0.95274197  0.87134939  0.02010100    -0.00100
C1601       C  0.93331812  0.88948127  0.01619782    -0.11800
C1602       C  0.91451740  0.88520387  0.99676546     0.02100
H1603       H  0.93497752  0.82607395  0.97274099     0.15100
H1604       H  0.93180384  0.90619145  0.02876509     0.15100
C1605       C  0.89491361  0.90435561  0.99411772     0.36700
C1606       C  0.97089360  0.82777739  0.00758785     0.36600
N1607       N  0.87919663  0.91973738  0.99202952    -0.43600
N1608       N  0.98491994  0.81096037  0.01056630    -0.43600
C1609       C  0.83838881  0.83549940  0.81246331     0.00000
C1610       C  0.83478097  0.86145458  0.82449637    -0.11900
C1611       C  0.83759577  0.86301437  0.84690131     0.02200
C1612       C  0.84439463  0.83828057  0.85801877    -0.00100
C1613       C  0.84670552  0.81142153  0.84606195    -0.11800
C1614       C  0.84362394  0.80977241  0.82355184     0.02100
H1615       H  0.83066059  0.88155061  0.81631009     0.15100
H1616       H  0.85130576  0.79170051  0.85431145     0.15100
C1617       C  0.84482762  0.78092646  0.81234402     0.36700
C1618       C  0.83500305  0.89137119  0.85780313     0.36600
N1619       N  0.84545712  0.75764152  0.80332330    -0.43600
N1620       N  0.83287936  0.91412878  0.86646782    -0.43600
C1621       C  0.83913906  0.91649071  0.64827739     0.00000
C1622       C  0.82482204  0.87866075  0.65053951    -0.11900
C1623       C  0.82757084  0.86311819  0.66985186     0.02200
C1624       C  0.84562099  0.88541323  0.68743864    -0.00100
C1625       C  0.86058920  0.92313475  0.68518899    -0.11800
C1626       C  0.85747073  0.93874600  0.66596549     0.02100
H1627       H  0.81058869  0.86074317  0.63728217     0.15100
H1628       H  0.87357351  0.94042876  0.69890400     0.15100
C1629       C  0.87161847  0.97730317  0.66535471     0.36700
C1630       C  0.80898601  0.82414095  0.67179414     0.36600
N1631       N  0.88275852  0.00820521  0.66498810    -0.43600
N1632       N  0.79373768  0.79290657  0.67342314    -0.43600
C1633       C  0.60765712  0.63036522  0.85900074     0.00000
C1634       C  0.60349411  0.65506865  0.84579809    -0.11900
C1635       C  0.59939739  0.65070124  0.82337302     0.02200
C1636       C  0.59954466  0.62113407  0.81355467    -0.00100
C1637       C  0.60478041  0.59715688  0.82675556    -0.11800
C1638       C  0.60861407  0.60132841  0.84906632     0.02100
H1639       H  0.60257149  0.67760199  0.85308844     0.15100
H1640       H  0.60491598  0.57406326  0.81970146     0.15100
C1641       C  0.61106107  0.57392593  0.86136569     0.36700
C1642       C  0.59527397  0.67696775  0.81094433     0.36600
N1643       N  0.61280463  0.55183653  0.87121612    -0.43600
N1644       N  0.59200012  0.69808096  0.80100300    -0.43600
C1645       C  0.93694141  0.93760403  0.76095538     0.00000
C1646       C  0.96659366  0.93139635  0.75967496    -0.11900
C1647       C  0.99264564  0.48123166  0.76844412     0.02200
C1648       C  0.48700102  0.51355084  0.76086333    -0.00100
C1649       C  0.97944892  0.99977886  0.77005760    -0.11800
C1650       C  0.94366411  0.97206927  0.76693304     0.02100
H1651       H  0.95128554  0.42549465  0.77004587     0.15100
H1652       H  0.47865652  0.04695862  0.74855271     0.15100
C1653       C  0.91495939  0.98060529  0.76874447     0.36700
C1654       C  0.50483031  0.47417498  0.78080659     0.36600
N1655       N  0.89206296  0.98760970  0.77007346    -0.43600
N1656       N  0.52644291  0.46884361  0.78852002    -0.43600
C1657       C  0.74599010  0.75709815  0.74212064     0.00000
C1658       C  0.74753134  0.72748602  0.75095118    -0.11900
C1659       C  0.71745601  0.69239756  0.75054431     0.02200
C1660       C  0.68501152  0.68624308  0.74076340    -0.00100
C1661       C  0.68408786  0.71583262  0.73115970    -0.11800
C1662       C  0.71398590  0.75104218  0.73200174     0.02100
H1663       H  0.77221583  0.73194528  0.75880381     0.15100
H1664       H  0.65945549  0.71171796  0.72342892     0.15100
C1665       C  0.71129930  0.78022948  0.72214381     0.36700
C1666       C  0.72025586  0.66393342  0.76132143     0.36600
N1667       N  0.70914931  0.80365065  0.71427608    -0.43600
N1668       N  0.72256141  0.64123770  0.77006984    -0.43600
C1669       C  0.92409304  0.94846252  0.57682002     0.00000
C1670       C  0.94850100  0.49182890  0.56602512    -0.11900
C1671       C  0.98480982  0.50061082  0.56808347     0.02200
C1672       C  0.50842070  0.50564837  0.57623297    -0.00100
C1673       C  0.96855283  0.93163908  0.58685164    -0.11800
C1674       C  0.93214024  0.92276855  0.58514100     0.02100
H1675       H  0.94278386  0.51151471  0.55871779     0.15100
H1676       H  0.48546096  0.93125111  0.57607387     0.15100
C1677       C  0.90402515  0.88861874  0.59382345     0.36700
C1678       C  0.52675093  0.56424423  0.59421398     0.36600
N1679       N  0.88152104  0.86131372  0.60087269    -0.43600
N1680       N  0.54841724  0.59115642  0.60190612    -0.43600
C1681       C  0.74703106  0.96524877  0.59675138     0.00000
C1682       C  0.71825539  0.94650014  0.61123628    -0.11900
C1683       C  0.69245004  0.95736799  0.61459747     0.02200
C1684       C  0.69101957  0.50028102  0.59971617    -0.00100
C1685       C  0.72286686  0.52223950  0.58799140    -0.11800
C1686       C  0.75025616  0.99599105  0.58591567     0.02100
H1687       H  0.71646817  0.92397366  0.62034155     0.15100
H1688       H  0.72596299  0.54593037  0.57960877     0.15100
C1689       C  0.78085729  0.53560499  0.57232685     0.36700
C1690       C  0.66435609  0.93784404  0.63048152     0.36600
N1691       N  0.80555059  0.55401815  0.56148802    -0.43600
N1692       N  0.64198067  0.92227464  0.64328860    -0.43600
C1693       C  0.58412682  0.53286361  0.64865561     0.00000
C1694       C  0.58748022  0.56740870  0.65050027    -0.11900
C1695       C  0.58407055  0.58097381  0.67037574     0.02200
C1696       C  0.57749405  0.56006089  0.68912969    -0.00100
C1697       C  0.57211272  0.52475952  0.68711325    -0.11800
C1698       C  0.57512079  0.51103337  0.66719980     0.02100
H1699       H  0.59380512  0.58446867  0.63635086     0.15100
H1700       H  0.56681703  0.50817028  0.70139143     0.15100
C1701       C  0.57126065  0.47554099  0.66654170     0.36700
C1702       C  0.58996560  0.61727731  0.67126017     0.36600
N1703       N  0.56821990  0.44709256  0.66601135    -0.43600
N1704       N  0.59471002  0.64639149  0.67197024    -0.43600
C1705       C  0.83898093  0.97366718  0.47909391     0.00000
C1706       C  0.84443890  0.50945433  0.48949107    -0.11900
C1707       C  0.84169072  0.50953974  0.51193226     0.02200
C1708       C  0.83176827  0.96868694  0.52476924    -0.00100
C1709       C  0.81410848  0.93760226  0.51157289    -0.11800
C1710       C  0.81782903  0.93973849  0.48910806    -0.01500
H1711       H  0.85909892  0.53543293  0.48131325     0.15100
H1712       H  0.79808505  0.91098146  0.51883229     0.15100
C1713       C  0.80077058  0.90658851  0.47696002     0.36700
C1714       C  0.85825754  0.54401264  0.52272642     0.36600
N1715       N  0.78721773  0.87993352  0.46727609    -0.43600
N1716       N  0.87165375  0.57186609  0.53114036    -0.43600
C1717       C  0.93564720  0.55894075  0.31622308     0.00000
C1718       C  0.90090786  0.52711160  0.31611380    -0.11900
C1719       C  0.88379948  0.50820615  0.33514588     0.02200
C1720       C  0.90105490  0.52134690  0.35499058    -0.00100
C1721       C  0.93667360  0.55179990  0.35498040    -0.11800
C1722       C  0.95413150  0.57026196  0.33592531     0.02100
H1723       H  0.88655070  0.51725796  0.30103730     0.15100
H1724       H  0.95062524  0.56200422  0.37014495     0.15100
C1725       C  0.99009149  0.60170824  0.33725439     0.36700
C1726       C  0.86359813  0.97298228  0.33564225     0.36600
N1727       N  0.01899742  0.62682809  0.33836480    -0.43600
N1728       N  0.83914069  0.94370379  0.33483850    -0.43600
C1729       C  0.98918681  0.63346808  0.19488063     0.00000
C1730       C  0.95977137  0.63032486  0.18257363    -0.11900
C1731       C  0.96041442  0.63054240  0.16001961     0.02200
C1732       C  0.99117966  0.63444000  0.14912664    -0.00100
C1733       C  0.02125726  0.63933000  0.16146604    -0.11800
C1734       C  0.02049041  0.63871387  0.18397052     0.02100
H1735       H  0.93545746  0.62658439  0.19060337     0.15100
H1736       H  0.04538749  0.64243313  0.15352344     0.15100
C1737       C  0.05140352  0.64142199  0.19525452     0.36700
C1738       C  0.92915578  0.62660865  0.14858007     0.36600
N1739       N  0.07617929  0.64349105  0.20424125    -0.43600
N1740       N  0.90407659  0.62346723  0.13941966    -0.43600
C1741       C  0.61051077  0.97614232  0.48396347     0.00000
C1742       C  0.63127678  0.52600887  0.48895557    -0.11900
C1743       C  0.63069282  0.53026848  0.51125246     0.02200
C1744       C  0.61572329  0.97720474  0.52964234    -0.00100
C1745       C  0.58547959  0.94926493  0.51936856    -0.11800
C1746       C  0.58256377  0.94842500  0.49690860     0.02100
H1747       H  0.63926168  0.54916020  0.47846233     0.15100
H1748       H  0.56303859  0.92902830  0.52895327     0.15100
C1749       C  0.54950777  0.91933297  0.48785559     0.36700
C1750       C  0.64232155  0.56640534  0.51876729     0.36600
N1751       N  0.52302719  0.89575784  0.48078626    -0.43600
N1752       N  0.65176228  0.59547888  0.52460430    -0.43600
C1753       C  0.76499356  0.49290995  0.40757932     0.00000
C1754       C  0.74103951  0.96388801  0.39804562    -0.11900
C1755       C  0.70415022  0.95381712  0.39996142     0.02200
C1756       C  0.69361071  0.97084459  0.41524455    -0.00100
C1757       C  0.72057125  0.99771326  0.42840853    -0.11800
C1758       C  0.75737280  0.00758322  0.42669097     0.02100
H1759       H  0.74263980  0.44558362  0.38704398     0.15100
H1760       H  0.71276434  0.01138298  0.44006949     0.15100
C1761       C  0.78293584  0.03363397  0.44167331     0.36700
C1762       C  0.67790744  0.92711786  0.38553739     0.36600
N1763       N  0.80434346  0.56937798  0.44201687    -0.43600
N1764       N  0.65682541  0.90574998  0.37396582    -0.43600
C1765       C  0.51209240  0.98351409  0.42463209     0.00000
C1766       C  0.51733991  0.52251282  0.41395120    -0.11900
C1767       C  0.97146935  0.49348763  0.43840702     0.02200
C1768       C  0.94117087  0.47329085  0.42518344    -0.00100
C1769       C  0.94585211  0.94837924  0.41385533    -0.11800
C1770       C  0.97111192  0.93693294  0.41647422     0.02100
H1771       H  0.54054033  0.53733869  0.40333075     0.15100
H1772       H  0.92382719  0.93396664  0.40253895     0.15100
C1773       C  0.96807187  0.90796233  0.40316219     0.36700
C1774       C  0.49749309  0.56439945  0.40234577     0.36600
N1775       N  0.96566186  0.88483456  0.39242846    -0.43600
N1776       N  0.50202426  0.58858634  0.39170028    -0.43600
C1777       C  0.98369949  0.70520355  0.26775145     0.00000
C1778       C  0.01886710  0.73347583  0.26191120    -0.11900
C1779       C  0.02755045  0.76987223  0.26115702     0.02200
C1780       C  0.00092641  0.77880371  0.26668657    -0.00100
C1781       C  0.47211962  0.76674822  0.27608353    -0.11800
C1782       C  0.95760833  0.71423153  0.27404764     0.02100
H1783       H  0.03939889  0.72700010  0.25704426     0.15100
H1784       H  0.45520771  0.77471396  0.28478694     0.15100
C1785       C  0.43086389  0.70450079  0.28856818     0.36700
C1786       C  0.06328954  0.79696550  0.25377626     0.36600
N1787       N  0.40593152  0.68406426  0.29862181    -0.43600
N1788       N  0.09197259  0.81858542  0.24781555    -0.43600
C1789       C  0.99419334  0.96151017  0.24569588     0.00000
C1790       C  0.95782328  0.95423726  0.24697049    -0.11900
C1791       C  0.94943529  0.98193705  0.24668700     0.02200
C1792       C  0.96822100  0.51451511  0.24198488    -0.00100
C1793       C  0.00277591  0.51955459  0.23667746    -0.11800
C1794       C  0.52925970  0.01344564  0.24620938     0.02100
H1795       H  0.93555472  0.92671747  0.24916906     0.15100
H1796       H  0.51455539  0.55393145  0.22506194     0.15100
C1797       C  0.53534117  0.50531392  0.22287432     0.36700
C1798       C  0.91211983  0.97256291  0.25021459     0.36600
N1799       N  0.56090292  0.50905268  0.21395029    -0.43600
N1800       N  0.88222234  0.96497951  0.25316119    -0.43600
C1801       C  0.53646677  0.92443325  0.31533173     0.00000
C1802       C  0.56942443  0.95766811  0.31798982    -0.11900
C1803       C  0.58458043  0.97062180  0.33845145     0.02200
C1804       C  0.56705756  0.95003550  0.35694520    -0.00100
C1805       C  0.53338190  0.91753357  0.35426421    -0.11800
C1806       C  0.51809832  0.90477068  0.33389843     0.02100
H1807       H  0.58396267  0.97335200  0.30389047     0.15100
H1808       H  0.51902150  0.90135238  0.36825745     0.15100
C1809       C  0.99308428  0.84439662  0.33379819     0.36700
C1810       C  0.61895449  0.00399483  0.33989371     0.36600
N1811       N  0.97359002  0.81359246  0.33171959    -0.43600
N1812       N  0.64655133  0.03076198  0.34105195    -0.43600
C1813       C  0.99341326  0.85805461  0.19215196     0.00000
C1814       C  0.52360337  0.87726238  0.17743371    -0.11900
C1815       C  0.02526165  0.88119913  0.15745022     0.02200
C1816       C  0.99263294  0.85978787  0.14617107    -0.00100
C1817       C  0.96099401  0.83650082  0.15827050    -0.11800
C1818       C  0.96111778  0.83544468  0.18087711     0.02100
H1819       H  0.54938695  0.88519828  0.18514186     0.15100
H1820       H  0.93558463  0.81915282  0.15006119     0.15100
C1821       C  0.92785271  0.81061295  0.19196497     0.36700
C1822       C  0.55575595  0.88843142  0.14301394     0.36600
N1823       N  0.90118505  0.79053806  0.20081122    -0.43600
N1824       N  0.58229006  0.89670015  0.13356699    -0.43600
loop_ 
_geom_bond_atom_site_label_1 
_geom_bond_atom_site_label_2 
_geom_bond_distance 
_geom_bond_site_symmetry_2 
_ccdc_geom_bond_type 
O1            V9   1.936       .  S
O1           C11   1.277   1_455  A
O2            V9   1.929       .  S
O2           C12   1.275   1_455  A
O3            V9   1.881       .  S
O3           C13   1.256       .  A
O4            V9   1.867       .  S
O4          C926   1.255   1_455  A
O5           V10   1.943       .  S
O5           C14   1.278       .  A
O6           V10   1.944       .  S
O6          C925   1.278       .  A
O7           V10   1.859       .  S
O7          C924   1.252       .  A
O8           V10   1.866       .  S
O8          C923   1.253       .  A
V9          V922   2.080   1_455  T
V10         V921   2.082       .  T
C11         O920   1.255       .  A
C11        C1324   1.498       .  S
C12         O919   1.253       .  A
C12        C1333   1.487       .  S
C13         O918   1.278   1_455  A
C13         C433   1.496       .  S
C14         O916   1.253       .  A
C14         C445   1.493       .  S
O15          V23   1.942       .  S
O15          C25   1.278       .  A
O16          V23   1.940       .  S
O16          C26   1.276       .  A
O17          V23   1.873       .  S
O17          C27   1.256       .  A
O18          V23   1.871       .  S
O18          C28   1.254       .  A
O19          V24   1.939       .  S
O19          C28   1.278       .  A
O20          V24   1.948       .  S
O20          C27   1.279       .  A
O21          V24   1.850       .  S
O21          C26   1.250       .  A
O22          V24   1.870       .  S
O22          C25   1.254       .  A
V23          V24   2.082       .  T
C25         C388   1.491       .  S
C26         C397   1.477   1_455  S
C27         C436   1.504       .  S
C28         C373   1.493       .  S
O29          V37   1.940       .  S
O29          C39   1.277       .  A
O30          V37   1.939       .  S
O30          C40   1.277       .  A
O31          V37   1.876       .  S
O31          C41   1.256       .  A
O32          V37   1.867       .  S
O32          C42   1.253       .  A
O33          V38   1.930       .  S
O33          C42   1.275       .  A
O34          V38   1.937       .  S
O34          C41   1.276       .  A
O35          V38   1.854       .  S
O35          C40   1.252       .  A
O36          V38   1.867       .  S
O36          C39   1.253       .  A
V37          V38   2.083       .  T
C39         C409   1.485       .  S
C40         C424   1.491       .  S
C41         C349   1.491       .  S
C42         C361   1.485       .  S
O43          V51   1.932       .  S
O43          C53   1.276       .  A
O44          V51   1.932       .  S
O44          C54   1.276       .  A
O45          V51   1.870       .  S
O45          C55   1.256       .  A
O46          V51   1.861       .  S
O46          C56   1.253   1_545  A
O47          V52   1.936       .  S
O47         C512   1.277       .  A
O48         V508   1.943       .  S
O48          C55   1.278   1_565  A
O49          V52   1.859       .  S
O49         C510   1.251       .  A
O50          V52   1.868       .  S
O50         C509   1.255       .  A
V51         V508   2.076   1_545  T
V52         O504   1.943       .  S
V52         V507   2.074       .  T
C53         O506   1.255   1_545  A
C53         C385   1.487   1_545  S
C54         O505   1.252   1_545  A
C54         C400   1.477       .  S
C55         C352   1.496       .  S
C56         O503   1.278       .  A
C56         C793   1.491       .  S
O57          V65   1.931       .  S
O57          C67   1.275   1_545  A
O58          V65   1.929       .  S
O58          C68   1.275   1_545  A
O59          V65   1.877       .  S
O59          C69   1.257       .  A
O60          V65   1.868       .  S
O60          C70   1.254   1_545  A
O61          V66   1.942       .  S
O61         C526   1.277       .  A
O62         V522   1.938       .  S
O62          C69   1.276   1_565  A
O63          V66   1.860       .  S
O63         C524   1.253       .  A
O64          V66   1.869       .  S
O64         C523   1.254       .  A
V65         V522   2.082   1_545  T
V66         O518   1.942       .  S
V66         V521   2.081       .  T
C67         O520   1.254       .  A
C67         C316   1.490       .  S
C68         O519   1.253       .  A
C68         C304   1.490   1_455  S
C69         C325   1.497       .  S
C70         O517   1.276       .  A
C70         C832   1.487       .  S
O71          V79   1.937       .  S
O71          C81   1.276       .  A
O72          V79   1.932       .  S
O72          C82   1.275       .  A
O73          V79   1.873       .  S
O73          C83   1.256       .  A
O74          V79   1.867       .  S
O74          C84   1.255       .  A
O75          V80   1.936       .  S
O75          C84   1.277       .  A
O76          V80   1.939       .  S
O76          C83   1.276       .  A
O77          V80   1.844       .  S
O77          C82   1.250       .  A
O78          V80   1.854       .  S
O78          C81   1.252       .  A
V79          V80   2.079       .  T
C81         C292   1.484       .  S
C82         C280   1.479   1_545  S
C83         C328   1.490       .  S
C84         C268   1.492       .  S
O85          V93   1.938       .  S
O85          C95   1.276       .  A
O86          V93   1.936       .  S
O86          C96   1.276       .  A
O87          V93   1.876       .  S
O87          C97   1.256       .  A
O88          V93   1.864       .  S
O88          C98   1.254       .  A
O89          V94   1.936       .  S
O89          C98   1.276       .  A
O90          V94   1.940       .  S
O90          C97   1.278       .  A
O91          V94   1.855       .  S
O91          C96   1.252       .  A
O92          V94   1.867       .  S
O92          C95   1.252       .  A
V93          V94   2.082       .  T
C95         C313   1.478       .  S
C96         C301   1.491       .  S
C97         C253   1.498       .  S
C98         C340   1.491       .  S
O99         V107   1.924       .  S
O99         C109   1.274       .  A
O100        V107   1.925       .  S
O100        C110   1.272       .  A
O101        V107   1.876       .  S
O101        C111   1.257       .  A
O102        V107   1.870       .  S
O102        C112   1.255       .  A
O103        V108   1.939       .  S
O103        C112   1.277       .  A
O104        V108   1.942       .  S
O104        C111   1.277       .  A
O105        V108   1.851       .  S
O105        C110   1.252       .  A
O106        V108   1.869       .  S
O106        C109   1.254       .  A
V107        V108   2.083       .  T
C109        C289   1.490       .  S
C110        C277   1.467       .  S
C111        C256   1.496       .  S
C112        C241   1.501       .  S
O113        V121   1.934       .  S
O113        C123   1.276       .  A
O114        V121   1.931       .  S
O114        C124   1.275       .  A
O115        V121   1.877       .  S
O115        C125   1.255       .  A
O116        V121   1.874       .  S
O116        C126   1.256       .  A
O117        V122   1.940       .  S
O117        C126   1.277       .  A
O118        V122   1.943       .  S
O118        C125   1.276       .  A
O119        V122   1.860       .  S
O119        C124   1.253       .  A
O120        V122   1.866       .  S
O120        C123   1.254       .  A
V121        V122   2.082       .  T
C123        C205   1.488       .  S
C124        C220   1.482       .  S
C125        C229   1.487       .  S
C126        C244   1.502       .  S
O127        V135   1.936       .  S
O127        C137   1.276       .  A
O128        V135   1.934       .  S
O128        C138   1.276       .  A
O129        V135   1.880       .  S
O129        C139   1.258       .  A
O130        V135   1.870       .  S
O130        C140   1.255       .  A
O131        V136   1.934       .  S
O131        C140   1.276       .  A
O132        V136   1.945       .  S
O132        C139   1.278       .  A
O133        V136   1.857       .  S
O133        C138   1.252       .  A
O134        V136   1.874       .  S
O134        C137   1.256       .  A
V135        V136   2.082       .  T
C137        C181   1.492       .  S
C138        C196   1.479       .  S
C139        C232   1.505       .  S
C140        C448   1.491       .  S
O141        V149   1.935       .  S
O141        C151   1.277       .  A
O142        V149   1.931       .  S
O142        C152   1.275       .  A
O143        V149   1.875       .  S
O143        C153   1.254       .  A
O144        V149   1.863       .  S
O144        C154   1.253       .  A
O145        V150   1.936       .  S
O145        C154   1.277       .  A
O146        V150   1.936       .  S
O146        C153   1.276       .  A
O147        V150   1.857       .  S
O147        C152   1.252       .  A
O148        V150   1.864       .  S
O148        C151   1.254       .  A
V149        V150   2.080       .  T
C151        C208   1.495       .  S
C152        C217   1.482       .  S
C153        C172   1.482       .  S
C154        C265   1.490       .  S
O155        V163   1.929       .  S
O155        C165   1.276   1_455  A
O156        V163   1.929       .  S
O156        C166   1.275       .  A
O157        V163   1.863       .  S
O157        C167   1.254       .  A
O158        V163   1.860       .  S
O158       C1080   1.253   1_455  A
O159        V164   1.940       .  S
O159        C168   1.277       .  A
O160        V164   1.945       .  S
O160       C1079   1.279       .  A
O161        V164   1.857       .  S
O161       C1078   1.251       .  A
O162        V164   1.874       .  S
O162       C1077   1.256       .  A
V163       V1076   2.076   1_455  T
V164       V1075   2.076       .  T
C165       O1074   1.256       .  A
C165       C1096   1.495       .  S
C166       O1073   1.252   1_455  A
C166       C1105   1.482   1_455  S
C167       O1072   1.279   1_455  A
C167        C169   1.504       .  S
C168       O1070   1.253       .  A
C168        C364   1.488       .  S
C169        C170   1.418       .  A
C169        C174   1.413       .  A
C170        C171   1.401       .  A
C170        H175   1.085       .  S
C171        C172   1.402   1_554  A
C171        C178   1.445   1_554  S
C172        C173   1.411       .  A
C173        C174   1.411   1_556  A
C173        H176   1.086       .  S
C174        C177   1.442   1_455  S
C177        N179   1.157       .  T
C178        N180   1.157       .  T
C181        C182   1.413       .  A
C181        C186   1.405       .  A
C182        C183   1.405       .  A
C182        H187   1.085       .  S
C183        C184   1.411       .  A
C183        C190   1.443       .  S
C184       C1077   1.502       .  S
C184       C1097   1.419       .  A
C185       C1096   1.398   1_455  A
C185       C1098   1.400       .  A
C185        H188   1.084       .  S
C186       C1097   1.406       .  A
C186       C1101   1.443       .  S
C189       C1098   1.444       .  S
C189        N191   1.157       .  T
C190        N192   1.157       .  T
C193       C1078   1.480       .  S
C193        C194   1.414       .  A
C193       C1110   1.403       .  A
C194        C651   1.403   1_545  A
C194        H199   1.085       .  S
C195        C196   1.401       .  A
C195        C650   1.398       .  A
C195        C202   1.444       .  S
C196        C197   1.413       .  A
C197       C1566   1.403       .  A
C197       H1112   1.086       .  S
C198       C1105   1.403   1_455  A
C198       C1565   1.396   1_545  A
C198        C201   1.445       .  S
H200       C1109   1.086   1_455  S
C201        N203   1.157       .  T
C202        N204   1.157       .  T
C205        C206   1.414       .  A
C205        C210   1.404       .  A
C206        C207   1.403       .  A
C206        H211   1.085       .  S
C207        C208   1.408       .  A
C207        C214   1.443       .  S
C208        C209   1.418       .  A
C209        C210   1.403       .  A
C209        H212   1.084       .  S
C210        C213   1.444       .  S
C213        N215   1.157       .  T
C214        N216   1.157       .  T
C217       C1130   1.413   1_545  A
C217       C1134   1.407   1_455  A
C218       C1129   1.415       .  A
C218        C675   1.396   1_545  A
C218       H1135   1.085       .  S
C219        C220   1.405       .  A
C219        C674   1.400       .  A
C219        C226   1.443       .  S
C220        C221   1.414       .  A
C221        C678   1.398       .  A
C221        H224   1.085       .  S
C222       C1129   1.402       .  A
C222        C677   1.398   1_545  A
C222        C225   1.444       .  S
H223       C1130   1.084       .  S
C225        N227   1.157       .  T
C226        N228   1.157       .  T
C229        C230   1.410       .  A
C229        C234   1.407       .  A
C230        C231   1.416   1_556  A
C230        H235   1.084       .  S
C231        C232   1.416       .  A
C231        C238   1.442       .  S
C232        C233   1.412       .  A
C233        C234   1.403   1_554  A
C233        H236   1.084       .  S
C234        C237   1.445       .  S
C237        N239   1.157       .  T
C238        N240   1.157       .  T
C241        C242   1.417       .  A
C241        C246   1.409       .  A
C242        C243   1.405       .  A
C242        H247   1.085       .  S
C243        C244   1.409       .  A
C243        C250   1.443       .  S
C244        C245   1.417       .  A
C245        C246   1.406       .  A
C245        H248   1.084       .  S
C246        C249   1.443       .  S
C249        N251   1.157       .  T
C250        N252   1.157       .  T
C253        C254   1.417       .  A
C253        C258   1.407       .  A
C254        C255   1.409       .  A
C254        H259   1.084       .  S
C255        C256   1.407       .  A
C255        C262   1.443       .  S
C256        C257   1.414       .  A
C257        C258   1.406       .  A
C257        H260   1.083       .  S
C258        C261   1.443       .  S
C261        N263   1.157       .  T
C262        N264   1.157       .  T
C265        C266   1.415       .  A
C265        C270   1.407       .  A
C266        C267   1.403       .  A
C266        H271   1.086       .  S
C267        C268   1.407       .  A
C267        C274   1.443       .  S
C268        C269   1.415       .  A
C269        C270   1.402       .  A
C269        H272   1.085       .  S
C270        C273   1.444       .  S
C273        N275   1.157       .  T
C274        N276   1.157       .  T
C277        C278   1.410       .  A
C277        C282   1.401       .  A
C278        C735   1.396       .  A
C278        H739   1.086       .  S
C279        C734   1.398       .  A
C279       C1192   1.405   1_565  A
C279       C1198   1.443       .  S
C280       C1191   1.403       .  A
C280       C1649   1.415   1_455  A
C281        C282   1.397       .  A
C281       C1648   1.415       .  A
C281       H1196   1.084       .  S
C282        C285   1.444       .  S
H283        C734   1.085       .  S
H284       C1193   1.084       .  S
C285        N287   1.157       .  T
C286       C1191   1.444       .  S
C286        N288   1.157       .  T
C289        C290   1.418       .  A
C289        C294   1.408       .  A
C290        C291   1.404       .  A
C290        H295   1.085       .  S
C291        C292   1.403       .  A
C291        C298   1.443       .  S
C292        C293   1.413       .  A
C293        C294   1.396       .  A
C293        H296   1.086       .  S
C294        C297   1.444       .  S
C297        N299   1.157       .  T
C298        N300   1.157       .  T
C301        C306   1.407       .  A
C301        C758   1.417       .  A
C302        C303   1.400       .  A
C302        C757   1.416   1_545  A
C302        H307   1.085       .  S
C303       C1216   1.405   1_545  A
C303       C1222   1.444       .  S
C304       C1215   1.407       .  A
C304       C1673   1.418       .  A
C305        C306   1.402       .  A
C305       C1672   1.414       .  A
C305       H1220   1.085       .  S
C306        C309   1.443       .  S
H308       C1217   1.084       .  S
C309        N311   1.157       .  T
C310       C1215   1.444   1_445  S
C310        N312   1.157       .  T
C313        C314   1.399       .  A
C313        C318   1.417       .  A
C314        C315   1.406       .  A
C314        H319   1.084       .  S
C315        C772   1.420       .  A
C315        C322   1.444       .  S
C316        C317   1.399   1_565  A
C316        C771   1.424       .  A
C317        C774   1.401       .  A
C317        H320   1.085       .  S
C318        C773   1.403       .  A
C318        C777   1.445       .  S
C321        C774   1.444       .  S
C321        N323   1.157       .  T
C322        N324   1.157       .  T
C325        C326   1.416       .  A
C325        C330   1.409   1_545  A
C326        C327   1.407       .  A
C326        H331   1.085       .  S
C327        C328   1.405       .  A
C327        C334   1.443       .  S
C328        C329   1.413       .  A
C329        C330   1.406   1_545  A
C329        H332   1.085   1_545  S
C330        C333   1.443       .  S
C333        N335   1.157       .  T
C334        N336   1.157       .  T
C337        C512   1.493       .  S
C337        C342   1.406       .  A
C337        C794   1.416       .  A
C338        C339   1.403       .  A
C338        C793   1.416   1_545  A
C338        H343   1.085       .  S
C339        C796   1.407   1_545  A
C339        C346   1.443       .  S
C340        C341   1.415       .  A
C340        C795   1.407       .  A
C341        C342   1.402       .  A
C341        H344   1.085       .  S
C342        C345   1.443       .  S
C345        N347   1.157       .  T
C346        N348   1.157       .  T
C349        C350   1.414       .  A
C349        C354   1.404       .  A
C350        C351   1.408       .  A
C350        H355   1.086       .  S
C351        C352   1.407       .  A
C351        C814   1.443   1_545  S
C352        C353   1.416       .  A
C353        C354   1.404       .  A
C353        H356   1.085       .  S
C354        C357   1.443       .  S
C357        N359   1.157       .  T
C358        C807   1.442       .  S
C358        N360   1.157       .  T
C361        C362   1.415       .  A
C361        C366   1.406       .  A
C362        C363   1.405       .  A
C362        H367   1.085       .  S
C363        C364   1.406       .  A
C363        C370   1.443       .  S
C364        C365   1.414       .  A
C365        C366   1.399       .  A
C365        H368   1.085       .  S
C366        C369   1.445       .  S
C369        N371   1.157       .  T
C370        N372   1.157       .  T
C373        C378   1.426       .  A
C373        C830   1.398       .  A
C374        C375   1.406       .  A
C374        C829   1.400       .  A
C374        H379   1.084   1_565  S
C375        C832   1.421       .  A
C375        C382   1.445   1_565  S
C376        C526   1.490       .  S
C376        C377   1.397       .  A
C376        C831   1.422       .  A
C377        C378   1.405       .  A
C377        H380   1.085       .  S
C378        C381   1.445       .  S
C381        N383   1.157       .  T
C382        N384   1.157       .  T
C385        C842   1.413       .  A
C385        C846   1.411   1_565  A
C386        C387   1.405       .  A
C386        C841   1.418       .  A
C386        H847   1.084       .  S
C387        C388   1.404       .  A
C387        C394   1.443       .  S
C388        C389   1.413       .  A
C389        C390   1.407       .  A
C389        H392   1.085       .  S
C390        C841   1.411       .  A
C390        C393   1.444       .  S
H391        C842   1.085       .  S
C393        N851   1.157       .  T
C394        N396   1.157       .  T
N395        C849   1.157       .  T
C397        C854   1.413       .  A
C397       C1314   1.404       .  A
C398        C853   1.413       .  A
C398       C1311   1.403   1_455  A
C398        H403   1.085   1_565  S
C399        C400   1.402       .  A
C399       C1310   1.398       .  A
C399       C1318   1.445       .  S
C400        C857   1.413   1_545  A
C401        C402   1.405       .  A
C401        C856   1.414       .  A
C401        H404   1.085       .  S
C402       C1309   1.405       .  A
C402        C405   1.443       .  S
C405        N407   1.157       .  T
C406       C1311   1.443   1_545  S
C406        N408   1.157       .  T
C409        C410   1.412       .  A
C409        C414   1.403       .  A
C410        C411   1.404       .  A
C410        H415   1.085       .  S
C411        C412   1.409       .  A
C411        C418   1.444       .  S
C412        C923   1.494       .  S
C412       C1325   1.417       .  A
C413       C1324   1.418       .  A
C413       C1326   1.405       .  A
C413        H416   1.084       .  S
C414       C1325   1.406       .  A
C414       C1329   1.443       .  S
C417       C1326   1.443       .  S
C417        N419   1.157       .  T
C418        N420   1.157       .  T
C421        C924   1.489       .  S
C421        C422   1.416       .  A
C421       C1338   1.407       .  A
C422        C423   1.399       .  A
C422        H427   1.084       .  S
C423        C880   1.403       .  A
C423        C430   1.444       .  S
C424        C425   1.417       .  A
C424        C879   1.407   1_545  A
C425       C1794   1.397       .  A
C425       H1340   1.084       .  S
C426       C1333   1.407   1_455  A
C426       C1793   1.398       .  A
C426        C885   1.443       .  S
H428       C1337   1.084       .  S
C429        C882   1.443   1_545  S
C429        N431   1.157       .  T
C430        N432   1.157       .  T
C433        C434   1.415       .  A
C433        C438   1.405       .  A
C434        C435   1.412       .  A
C434        H439   1.085       .  S
C435        C436   1.409       .  A
C435        C442   1.442       .  S
C436        C437   1.417       .  A
C437        C438   1.406       .  A
C437        H440   1.085       .  S
C438       C1353   1.444   1_455  S
C441       C1350   1.444       .  S
C441        N443   1.157       .  T
C442        N444   1.157       .  T
C445        C450   1.407       .  A
C445       C1358   1.415       .  A
C446       C1357   1.416   1_455  A
C446       C1359   1.402       .  A
C446        H451   1.084       .  S
C447        C448   1.407       .  A
C447       C1358   1.401       .  A
C447       C1366   1.444       .  S
C448        C449   1.416       .  A
C449        C450   1.406       .  A
C449        H452   1.085       .  S
C450        C453   1.443       .  S
C453        N455   1.157       .  T
C454       C1359   1.443       .  S
C454        N456   1.157       .  T
O457        V465   1.946       .  S
O457        C467   1.279       .  A
O458        V465   1.938       .  S
O458        C468   1.277       .  A
O459        V465   1.880       .  S
O459        C469   1.255       .  A
O460        V465   1.873       .  S
O460       C1382   1.256   1_455  A
O461        V466   1.938       .  S
O461        C470   1.277       .  A
O462        V466   1.941       .  S
O462       C1381   1.278       .  A
O463        V466   1.862       .  S
O463       C1380   1.253       .  A
O464        V466   1.869       .  S
O464       C1379   1.254       .  A
V465       V1378   2.080   1_455  T
V466       V1377   2.082       .  T
C467       O1376   1.252   1_455  A
C467       C1780   1.498       .  S
C468       O1375   1.251   1_455  A
C468       C1789   1.490   1_455  S
C469       O1374   1.278   1_455  A
C469        C889   1.494       .  S
C470       O1372   1.256       .  A
C470        C901   1.502       .  S
O471        V479   1.937       .  S
O471        C481   1.275       .  A
O472        V479   1.935       .  S
O472        C482   1.276       .  A
O473        V479   1.871       .  S
O473        C483   1.255       .  A
O474        V479   1.868       .  S
O474        C484   1.253       .  A
O475        V480   1.942       .  S
O475        C484   1.278       .  A
O476        V480   1.950       .  S
O476        C483   1.280       .  A
O477        V480   1.852       .  S
O477        C482   1.249       .  A
O478        V480   1.864       .  S
O478        C481   1.252       .  A
V479        V480   2.082       .  T
C481        C844   1.477       .  S
C482        C853   1.473       .  S
C483        C892   1.506       .  S
C484        C829   1.493       .  S
O485        V493   1.935       .  S
O485        C495   1.276       .  A
O486        V493   1.931       .  S
O486        C496   1.275       .  A
O487        V493   1.877       .  S
O487        C497   1.256       .  A
O488        V493   1.874       .  S
O488        C498   1.256       .  A
O489        V494   1.931       .  S
O489        C498   1.276       .  A
O490        V494   1.940       .  S
O490        C497   1.276       .  A
O491        V494   1.862       .  S
O491        C496   1.253       .  A
O492        V494   1.870       .  S
O492        C495   1.254       .  A
V493        V494   2.084       .  T
C495        C865   1.485       .  S
C496        C880   1.479       .  S
C497        C805   1.490       .  S
C498        C817   1.496       .  S
O499        V507   1.942       .  S
O499        C509   1.278       .  A
O500        V507   1.935       .  S
O500        C510   1.277       .  A
O501        V507   1.877       .  S
O501        C511   1.257       .  A
O502        V507   1.866       .  S
O502        C512   1.254       .  A
O503        V508   1.939       .  S
O504        C511   1.278       .  A
O505        V508   1.860       .  S
O506        V508   1.871       .  S
C509        C841   1.500       .  S
C510        C856   1.475       .  S
C511        C808   1.501       .  S
O513        V521   1.935       .  S
O513        C523   1.276       .  A
O514        V521   1.931       .  S
O514        C524   1.275       .  A
O515        V521   1.882       .  S
O515        C525   1.258       .  A
O516        V521   1.866       .  S
O516        C526   1.253       .  A
O517        V522   1.937       .  S
O518        C525   1.277       .  A
O519        V522   1.863       .  S
O520        V522   1.867       .  S
C523        C772   1.487       .  S
C524        C760   1.487   1_455  S
C525        C781   1.502       .  S
O527        V535   1.931       .  S
O527        C537   1.275       .  A
O528        V535   1.928       .  S
O528        C538   1.274       .  A
O529        V535   1.874       .  S
O529        C539   1.256       .  A
O530        V535   1.863       .  S
O530        C540   1.254       .  A
O531        V536   1.944       .  S
O531        C540   1.278       .  A
O532        V536   1.946       .  S
O532        C539   1.278       .  A
O533        V536   1.848       .  S
O533        C538   1.250       .  A
O534        V536   1.858       .  S
O534        C537   1.253       .  A
V535        V536   2.080       .  T
C537        C748   1.490       .  S
C538        C736   1.480       .  S
C539        C784   1.498       .  S
C540        C724   1.500       .  S
O541        V549   1.933       .  S
O541        C551   1.275       .  A
O542        V549   1.932       .  S
O542        C552   1.275       .  A
O543        V549   1.870       .  S
O543        C553   1.255       .  A
O544        V549   1.863       .  S
O544        C554   1.254       .  A
O545        V550   1.940   1_545  S
O545        C554   1.277   1_545  A
O546        V550   1.945       .  S
O546        C553   1.278       .  A
O547        V550   1.858   1_545  S
O547        C552   1.253   1_545  A
O548        V550   1.869   1_545  S
O548        C551   1.253   1_545  A
V549        V550   2.082       .  T
C551        C769   1.483       .  S
C552        C757   1.485       .  S
C553        C709   1.499       .  S
C554        C796   1.494       .  S
O555        V563   1.928       .  S
O555        C565   1.275       .  A
O556        V563   1.924       .  S
O556        C566   1.273       .  A
O557        V563   1.881       .  S
O557        C567   1.257       .  A
O558        V563   1.876       .  S
O558        C568   1.257       .  A
O559        V564   1.933       .  S
O559        C568   1.276       .  A
O560        V564   1.937       .  S
O560        C567   1.276       .  A
O561        V564   1.852       .  S
O561        C566   1.251       .  A
O562        V564   1.863       .  S
O562        C565   1.253       .  A
V563        V564   2.084       .  T
C565        C745   1.485       .  S
C566        C733   1.470       .  S
C567        C712   1.495       .  S
C568        C697   1.500       .  S
O569        V577   1.932       .  S
O569        C579   1.276       .  A
O570        V577   1.928       .  S
O570        C580   1.275       .  A
O571        V577   1.879       .  S
O571        C581   1.257       .  A
O572        V577   1.869       .  S
O572        C582   1.255       .  A
O573        V578   1.943       .  S
O573        C582   1.278       .  A
O574        V578   1.945       .  S
O574        C581   1.278       .  A
O575        V578   1.852       .  S
O575        C580   1.251       .  A
O576        V578   1.862       .  S
O576        C579   1.253       .  A
V577        V578   2.079       .  T
C579        C661   1.492       .  S
C580        C676   1.483       .  S
C581        C685   1.501       .  S
C582        C700   1.502       .  S
O583        V591   1.941       .  S
O583        C593   1.278       .  A
O584        V591   1.939       .  S
O584        C594   1.277       .  A
O585        V591   1.874       .  S
O585        C595   1.255       .  A
O586        V591   1.867       .  S
O586        C596   1.254       .  A
O587        V592   1.948       .  S
O587        C596   1.280       .  A
O588        V592   1.952       .  S
O588        C595   1.280       .  A
O589        V592   1.853       .  S
O589        C594   1.251       .  A
O590        V592   1.866       .  S
O590        C593   1.253       .  A
V591        V592   2.080       .  T
C593        C637   1.491       .  S
C594        C652   1.489       .  S
C595        C688   1.504       .  S
C596        C904   1.504       .  S
O597        V605   1.937       .  S
O597        C607   1.276       .  A
O598        V605   1.934       .  S
O598        C608   1.275       .  A
O599        V605   1.876       .  S
O599        C609   1.257       .  A
O600        V605   1.871       .  S
O600        C610   1.255       .  A
O601        V606   1.933       .  S
O601        C610   1.276       .  A
O602        V606   1.936       .  S
O602        C609   1.276       .  A
O603        V606   1.844       .  S
O603        C608   1.250       .  A
O604        V606   1.859       .  S
O604        C607   1.252       .  A
V605        V606   2.082       .  T
C607        C664   1.486       .  S
C608        C673   1.480       .  S
C609        C628   1.495       .  S
C610        C721   1.498       .  S
O611        V619   1.942       .  S
O611        C621   1.278       .  A
O612        V619   1.939       .  S
O612        C622   1.277   1_455  A
O613        V619   1.869       .  S
O613        C623   1.254       .  A
O614        V619   1.863       .  S
O614       C1536   1.253   1_455  A
O615        V620   1.942       .  S
O615        C624   1.278       .  A
O616        V620   1.943       .  S
O616       C1535   1.278       .  A
O617        V620   1.856       .  S
O617       C1534   1.252       .  A
O618        V620   1.863       .  S
O618       C1533   1.253       .  A
V619       V1532   2.081   1_455  T
V620       V1531   2.080       .  T
C621       O1530   1.252   1_455  A
C621       C1552   1.492       .  S
C622       O1529   1.250       .  A
C622       C1561   1.482       .  S
C623       O1528   1.277   1_455  A
C623        C625   1.492       .  S
C624       O1526   1.253       .  A
C624        C820   1.497       .  S
C625        C626   1.414       .  A
C625        C630   1.405       .  A
C626        C627   1.405       .  A
C626        H631   1.086       .  S
C627        C628   1.407   1_554  A
C627        C634   1.443       .  S
C628        C629   1.415       .  A
C629        C630   1.406   1_556  A
C629        H632   1.086       .  S
C630        C633   1.443   1_455  S
C633        N635   1.157       .  T
C634        N636   1.157       .  T
C637        C638   1.415       .  A
C637        C642   1.403       .  A
C638        C639   1.405       .  A
C638        H643   1.085       .  S
C639        C640   1.408       .  A
C639        C646   1.443       .  S
C640       C1533   1.499       .  S
C640       C1553   1.419       .  A
C641       C1552   1.418   1_655  A
C641       C1554   1.403       .  A
C641        H644   1.085       .  S
C642       C1553   1.404       .  A
C642       C1557   1.443       .  S
C645       C1554   1.443       .  S
C645        N647   1.157       .  T
C646        N648   1.157       .  T
C649       C1534   1.491       .  S
C649        C650   1.418       .  A
C649       C1566   1.407       .  A
C650        H655   1.085       .  S
C651        C652   1.406       .  A
C651        C658   1.443       .  S
C652        C653   1.417   1_565  A
C653       C1110   1.397       .  A
C653       H1568   1.085   1_545  S
C654       C1561   1.405   1_455  A
C654       C1109   1.402   1_455  A
C654        C657   1.443       .  S
H656       C1565   1.084       .  S
C657        N659   1.157       .  T
C658        N660   1.157       .  T
C661        C662   1.418       .  A
C661        C666   1.407       .  A
C662        C663   1.403       .  A
C662        H667   1.084       .  S
C663        C664   1.403       .  A
C663        C670   1.443       .  S
C664        C665   1.414       .  A
C665        C666   1.400       .  A
C665        H668   1.085       .  S
C666        C669   1.444       .  S
C669        N671   1.157       .  T
C670        N672   1.157       .  T
C673       C1586   1.415       .  A
C673       C1590   1.402   1_455  A
C674       C1585   1.411       .  A
C674       H1591   1.086       .  S
C675        C676   1.404       .  A
C675        C682   1.444       .  S
C676        C677   1.417       .  A
C677        H680   1.084       .  S
C678       C1585   1.403       .  A
C678        C681   1.444       .  S
H679       C1586   1.085       .  S
C681        N683   1.157       .  T
C682        N684   1.157       .  T
C685        C686   1.416       .  A
C685        C690   1.406       .  A
C686        C687   1.411   1_556  A
C686        H691   1.085       .  S
C687        C688   1.408       .  A
C687        C694   1.442   1_554  S
C688        C689   1.417       .  A
C689        C690   1.408   1_554  A
C689        H692   1.085       .  S
C690        C693   1.443   1_556  S
C693        N695   1.157       .  T
C694        N696   1.157       .  T
C697        C698   1.417       .  A
C697        C702   1.409       .  A
C698        C699   1.407       .  A
C698        H703   1.084       .  S
C699        C700   1.409       .  A
C699        C706   1.443       .  S
C700        C701   1.417       .  A
C701        C702   1.403       .  A
C701        H704   1.084       .  S
C702        C705   1.444       .  S
C705        N707   1.157       .  T
C706        N708   1.157       .  T
C709        C710   1.416       .  A
C709        C714   1.408       .  A
C710        C711   1.406       .  A
C710        H715   1.084       .  S
C711        C712   1.406       .  A
C711        C718   1.443       .  S
C712        C713   1.415       .  A
C713        C714   1.409       .  A
C713        H716   1.084       .  S
C714        C717   1.443       .  S
C717        N719   1.157   1_565  T
C718        N720   1.157       .  T
C721        C722   1.418       .  A
C721        C726   1.407       .  A
C722        C723   1.407       .  A
C722        H727   1.085       .  S
C723        C724   1.408       .  A
C723        C730   1.443       .  S
C724        C725   1.417       .  A
C725        C726   1.401       .  A
C725        H728   1.085       .  S
C726        C729   1.444       .  S
C729        N731   1.157       .  T
C730        N732   1.157       .  T
C733        C734   1.413       .  A
C733        C738   1.400       .  A
C735       C1648   1.406       .  A
C735       C1654   1.444       .  S
C736       C1647   1.404   1_455  A
C736       C1193   1.417   1_455  A
C737       C1192   1.417       .  A
C737        C738   1.394   1_545  A
C737       H1652   1.084       .  S
C738        C741   1.445   1_565  S
H740       C1649   1.085   1_545  S
C741        N743   1.157       .  T
C742       C1647   1.444   1_455  S
C742        N744   1.157       .  T
C745        C746   1.414       .  A
C745        C750   1.404       .  A
C746        C747   1.400       .  A
C746        H751   1.085       .  S
C747        C748   1.407       .  A
C747        C754   1.444       .  S
C748        C749   1.417       .  A
C749        C750   1.399       .  A
C749        H752   1.085       .  S
C750        C753   1.444       .  S
C753        N755   1.157       .  T
C754        N756   1.157       .  T
C757        C762   1.404       .  A
C758        C759   1.397       .  A
C758        H763   1.084       .  S
C759       C1672   1.403       .  A
C759       C1678   1.445       .  S
C760       C1671   1.407       .  A
C760       C1217   1.417       .  A
C761       C1216   1.416       .  A
C761        C762   1.398       .  A
C761       H1676   1.085       .  S
C762        C765   1.444       .  S
H764       C1673   1.084       .  S
C765        N767   1.157       .  T
C766       C1671   1.444   1_455  S
C766        N768   1.157       .  T
C769        C770   1.397       .  A
C769        C774   1.420   1_565  A
C770        C771   1.403       .  A
C770        H775   1.085       .  S
C771        C778   1.445       .  S
C772        C773   1.401       .  A
C773        H776   1.084       .  S
C777        N779   1.157       .  T
C778        N780   1.157       .  T
C781        C782   1.417       .  A
C781        C786   1.408       .  A
C782        C783   1.410       .  A
C782        H787   1.084       .  S
C783        C784   1.407       .  A
C783        C790   1.443       .  S
C784        C785   1.415       .  A
C785        C786   1.408       .  A
C785        H788   1.085       .  S
C786        C789   1.443       .  S
C789        N791   1.157       .  T
C790        N792   1.157       .  T
C793        C798   1.405       .  A
C794        C795   1.403       .  A
C794        H799   1.085       .  S
C795        C802   1.444       .  S
C796        C797   1.417       .  A
C797        C798   1.401       .  A
C797        H800   1.085       .  S
C798        C801   1.443       .  S
C801        N803   1.157       .  T
C802        N804   1.157       .  T
C805        C806   1.412       .  A
C805        C810   1.404       .  A
C806        C807   1.408       .  A
C806        H811   1.084       .  S
C807        C808   1.409       .  A
C808        C809   1.417       .  A
C809        C810   1.407       .  A
C809        H812   1.085       .  S
C810        C813   1.443       .  S
C813        N815   1.157       .  T
C814        N816   1.157       .  T
C817        C818   1.417       .  A
C817        C822   1.407       .  A
C818        C819   1.406       .  A
C818        H823   1.085       .  S
C819        C820   1.407       .  A
C819        C826   1.443       .  S
C820        C821   1.416       .  A
C821        C822   1.401       .  A
C821        H824   1.085       .  S
C822        C825   1.444       .  S
C825        N827   1.157       .  T
C826        N828   1.157       .  T
C829        C834   1.426       .  A
C830        C831   1.404       .  A
C830        H835   1.085       .  S
C831        C838   1.445       .  S
C832        C833   1.396       .  A
C833        C834   1.402       .  A
C833        H836   1.085       .  S
C834        C837   1.446       .  S
C837        N839   1.157       .  T
C838        N840   1.157       .  T
C842        C843   1.406       .  A
C843        C844   1.405       .  A
C843        C850   1.443       .  S
C844        C845   1.407       .  A
C845        C846   1.402   1_565  A
C845        H848   1.086   1_565  S
C846        C849   1.444       .  S
C850        N852   1.157       .  T
C853       C1770   1.402   1_455  A
C854       C1767   1.400       .  A
C854        H859   1.085   1_655  S
C855       C1766   1.396       .  A
C855        C856   1.402       .  A
C855       C1774   1.444       .  S
C857        C858   1.403       .  A
C857        H860   1.085       .  S
C858       C1765   1.405       .  A
C858        C861   1.442       .  S
C861        N863   1.157       .  T
C862       C1767   1.443       .  S
C862        N864   1.157       .  T
C865        C866   1.411       .  A
C865        C870   1.404       .  A
C866        C867   1.403       .  A
C866        H871   1.085       .  S
C867        C868   1.409       .  A
C867        C874   1.444       .  S
C868       C1379   1.492       .  S
C868       C1781   1.416       .  A
C869       C1780   1.418   1_655  A
C869       C1782   1.401       .  A
C869        H872   1.084       .  S
C870       C1781   1.405       .  A
C870       C1785   1.443       .  S
C873       C1782   1.444       .  S
C873        N875   1.157       .  T
C874        N876   1.157       .  T
C877       C1380   1.482       .  S
C877        C878   1.415       .  A
C877       C1794   1.402   1_565  A
C878        C879   1.403       .  A
C878        H883   1.085       .  S
C879        C886   1.443       .  S
C880        C881   1.413       .  A
C881       C1338   1.403       .  A
C881       H1796   1.085       .  S
C882       C1789   1.405   1_455  A
C882       C1337   1.401   1_565  A
H884       C1793   1.085       .  S
C885        N887   1.157       .  T
C886        N888   1.157       .  T
C889        C890   1.414       .  A
C889        C894   1.405       .  A
C890        C891   1.412       .  A
C890        H895   1.085       .  S
C891        C892   1.410       .  A
C891        C898   1.442       .  S
C892        C893   1.418       .  A
C893        C894   1.406       .  A
C893        H896   1.085       .  S
C894       C1809   1.444   1_455  S
C897       C1806   1.444       .  S
C897        N899   1.157       .  T
C898        N900   1.157   1_565  T
C901       C1814   1.418       .  A
C901        C906   1.409       .  A
C902       C1813   1.417   1_455  A
C902       C1815   1.405       .  A
C902        H907   1.084       .  S
C903       C1814   1.409       .  A
C903        C904   1.408       .  A
C903       C1822   1.443       .  S
C904        C905   1.417       .  A
C905        C906   1.404       .  A
C905        H908   1.084       .  S
C906        C909   1.444       .  S
C909        N911   1.157       .  T
C910       C1815   1.443       .  S
C910        N912   1.157       .  T
O913        V921   1.941       .  S
O913        C923   1.278       .  A
O914        V921   1.937       .  S
O914        C924   1.277       .  A
O915        V921   1.875       .  S
O915        C925   1.255       .  A
O916        V921   1.863       .  S
O917        V922   1.942       .  S
O917        C926   1.277       .  A
O918        V922   1.942       .  S
O919        V922   1.859       .  S
O920        V922   1.869       .  S
C925       C1345   1.494       .  S
C926       C1357   1.501       .  S
O927        V935   1.943       .  S
O927        C937   1.278       .  A
O928        V935   1.943       .  S
O928        C938   1.278       .  A
O929        V935   1.876       .  S
O929        C939   1.256       .  A
O930        V935   1.866       .  S
O930        C940   1.253       .  A
O931        V936   1.939       .  S
O931        C940   1.278       .  A
O932        V936   1.945       .  S
O932        C939   1.279       .  A
O933        V936   1.849       .  S
O933        C938   1.250       .  A
O934        V936   1.862       .  S
O934        C937   1.251       .  A
V935        V936   2.080       .  T
C937       C1300   1.483       .  S
C938       C1309   1.484       .  S
C939       C1348   1.506       .  S
C940       C1285   1.494       .  S
O941        V949   1.939       .  S
O941        C951   1.277       .  A
O942        V949   1.934       .  S
O942        C952   1.276       .  A
O943        V949   1.875       .  S
O943        C953   1.255       .  A
O944        V949   1.868       .  S
O944        C954   1.254       .  A
O945        V950   1.937   1_455  S
O945        C954   1.277   1_455  A
O946        V950   1.943       .  S
O946        C953   1.278       .  A
O947        V950   1.856   1_455  S
O947        C952   1.252   1_455  A
O948        V950   1.867       .  S
O948        C951   1.254       .  A
V949        V950   2.082       .  T
C951       C1321   1.490       .  S
C952       C1336   1.486       .  S
C953       C1261   1.494       .  S
C954       C1273   1.497       .  S
O955        V963   1.941       .  S
O955        C965   1.279   1_545  A
O956        V963   1.940       .  S
O956        C966   1.277   1_545  A
O957        V963   1.873       .  S
O957        C967   1.256       .  A
O958        V963   1.857       .  S
O958        C968   1.252   1_545  A
O959        V964   1.948       .  S
O959       C1424   1.280       .  A
O960       V1420   1.948       .  S
O960        C967   1.279   1_565  A
O961        V964   1.859       .  S
O961       C1422   1.252       .  A
O962        V964   1.863       .  S
O962       C1421   1.253       .  A
V963       V1420   2.077   1_545  T
V964       O1416   1.948       .  S
V964       V1419   2.077       .  T
C965       O1418   1.253       .  A
C965       C1297   1.496       .  S
C966       O1417   1.251       .  A
C966       C1312   1.482       .  S
C967       C1264   1.503       .  S
C968       O1415   1.280       .  A
C968       C1705   1.498       .  S
O969        V977   1.934       .  S
O969        C979   1.276   1_545  A
O970        V977   1.932       .  S
O970        C980   1.275   1_545  A
O971        V977   1.881       .  S
O971        C981   1.258       .  A
O972        V977   1.869       .  S
O972        C982   1.254   1_545  A
O973        V978   1.938       .  S
O973       C1438   1.278       .  A
O974       V1434   1.943       .  S
O974        C981   1.277   1_565  A
O975        V978   1.857       .  S
O975       C1436   1.252       .  A
O976        V978   1.866       .  S
O976       C1435   1.253       .  A
V977       V1434   2.082   1_545  T
V978       O1430   1.941       .  S
V978       V1433   2.077       .  T
C979       O1432   1.254       .  A
C979       C1228   1.491       .  S
C980       O1431   1.252       .  A
C980       C1216   1.486       .  S
C981       C1237   1.502       .  S
C982       O1429   1.277       .  A
C982       C1744   1.491       .  S
O983        V991   1.938       .  S
O983        C993   1.276       .  A
O984        V991   1.933       .  S
O984        C994   1.276       .  A
O985        V991   1.875       .  S
O985        C995   1.256       .  A
O986        V991   1.865       .  S
O986        C996   1.254       .  A
O987        V992   1.945       .  S
O987        C996   1.279       .  A
O988        V992   1.948       .  S
O988        C995   1.279       .  A
O989        V992   1.846       .  S
O989        C994   1.250       .  A
O990        V992   1.854       .  S
O990        C993   1.251       .  A
V991        V992   2.079       .  T
C993       C1204   1.476       .  S
C994       C1192   1.482       .  S
C995       C1240   1.498       .  S
C996       C1180   1.500       .  S
O997       V1005   1.936       .  S
O997       C1007   1.276       .  A
O998       V1005   1.934       .  S
O998       C1008   1.275       .  A
O999       V1005   1.876       .  S
O999       C1009   1.257       .  A
O1000      V1005   1.868       .  S
O1000      C1010   1.254       .  A
O1001      V1006   1.940       .  S
O1001      C1010   1.278       .  A
O1002      V1006   1.949       .  S
O1002      C1009   1.279       .  A
O1003      V1006   1.852       .  S
O1003      C1008   1.251       .  A
O1004      V1006   1.870       .  S
O1004      C1007   1.254       .  A
V1005      V1006   2.081       .  T
C1007      C1225   1.485       .  S
C1008      C1213   1.476       .  S
C1009      C1165   1.509       .  S
C1010      C1252   1.499       .  S
O1011      V1019   1.931       .  S
O1011      C1021   1.276       .  A
O1012      V1019   1.925       .  S
O1012      C1022   1.273       .  A
O1013      V1019   1.887       .  S
O1013      C1023   1.258       .  A
O1014      V1019   1.877       .  S
O1014      C1024   1.256       .  A
O1015      V1020   1.937       .  S
O1015      C1024   1.277       .  A
O1016      V1020   1.940       .  S
O1016      C1023   1.276       .  A
O1017      V1020   1.848       .  S
O1017      C1022   1.251       .  A
O1018      V1020   1.861       .  S
O1018      C1021   1.252       .  A
V1019      V1020   2.083       .  T
C1021      C1201   1.487       .  S
C1022      C1189   1.475       .  S
C1023      C1168   1.495       .  S
C1024      C1153   1.502       .  S
O1025      V1033   1.934       .  S
O1025      C1035   1.276       .  A
O1026      V1033   1.929       .  S
O1026      C1036   1.275       .  A
O1027      V1033   1.879       .  S
O1027      C1037   1.257       .  A
O1028      V1033   1.867       .  S
O1028      C1038   1.255       .  A
O1029      V1034   1.947       .  S
O1029      C1038   1.279       .  A
O1030      V1034   1.947       .  S
O1030      C1037   1.279       .  A
O1031      V1034   1.851       .  S
O1031      C1036   1.251       .  A
O1032      V1034   1.860       .  S
O1032      C1035   1.253       .  A
V1033      V1034   2.079       .  T
C1035      C1117   1.492       .  S
C1036      C1132   1.483       .  S
C1037      C1141   1.506       .  S
C1038      C1156   1.504       .  S
O1039      V1047   1.937       .  S
O1039      C1049   1.276       .  A
O1040      V1047   1.929       .  S
O1040      C1050   1.274       .  A
O1041      V1047   1.882       .  S
O1041      C1051   1.258       .  A
O1042      V1047   1.877       .  S
O1042      C1052   1.257       .  A
O1043      V1048   1.935       .  S
O1043      C1052   1.276       .  A
O1044      V1048   1.943       .  S
O1044      C1051   1.277       .  A
O1045      V1048   1.858       .  S
O1045      C1050   1.252       .  A
O1046      V1048   1.869       .  S
O1046      C1049   1.254       .  A
V1047      V1048   2.083       .  T
C1049      C1093   1.489       .  S
C1050      C1108   1.473       .  S
C1051      C1144   1.497       .  S
C1052      C1360   1.500       .  S
O1053      V1061   1.934       .  S
O1053      C1063   1.277       .  A
O1054      V1061   1.931       .  S
O1054      C1064   1.275       .  A
O1055      V1061   1.875       .  S
O1055      C1065   1.255       .  A
O1056      V1061   1.869       .  S
O1056      C1066   1.254       .  A
O1057      V1062   1.940       .  S
O1057      C1066   1.278       .  A
O1058      V1062   1.942       .  S
O1058      C1065   1.277       .  A
O1059      V1062   1.849       .  S
O1059      C1064   1.251       .  A
O1060      V1062   1.861       .  S
O1060      C1063   1.252       .  A
V1061      V1062   2.081       .  T
C1063      C1120   1.488       .  S
C1064      C1129   1.479       .  S
C1065      C1084   1.489       .  S
C1066      C1177   1.499       .  S
O1067      V1075   1.938       .  S
O1067      C1077   1.277       .  A
O1068      V1075   1.934       .  S
O1068      C1078   1.276       .  A
O1069      V1075   1.872       .  S
O1069      C1079   1.256       .  A
O1070      V1075   1.861       .  S
O1071      V1076   1.944       .  S
O1071      C1080   1.279       .  A
O1072      V1076   1.948       .  S
O1073      V1076   1.861       .  S
O1074      V1076   1.878       .  S
C1079      C1081   1.503       .  S
C1080      C1276   1.498       .  S
C1081      C1082   1.418       .  A
C1081      C1086   1.410       .  A
C1082      C1083   1.406       .  A
C1082      H1087   1.085       .  S
C1083      C1084   1.405   1_554  A
C1083      C1090   1.444       .  S
C1084      C1085   1.412       .  A
C1085      C1086   1.409   1_556  A
C1085      H1088   1.085       .  S
C1086      C1089   1.442       .  S
C1089      N1091   1.157       .  T
C1090      N1092   1.157       .  T
C1093      C1094   1.399       .  A
C1093      C1098   1.422   1_655  A
C1094      C1095   1.408       .  A
C1094      H1099   1.084       .  S
C1095      C1096   1.426       .  A
C1095      C1102   1.444       .  S
C1097      H1100   1.084       .  S
C1101      N1103   1.157       .  T
C1102      N1104   1.157       .  T
C1105      C1106   1.415       .  A
C1106      C1563   1.404   1_545  A
C1106      H1111   1.085       .  S
C1107      C1562   1.394       .  A
C1107      C1108   1.401       .  A
C1107      C1114   1.444       .  S
C1108      C1109   1.413       .  A
C1110      C1113   1.445       .  S
C1113      N1115   1.157       .  T
C1114      N1116   1.157       .  T
C1117      C1118   1.418       .  A
C1117      C1122   1.406       .  A
C1118      C1119   1.400       .  A
C1118      H1123   1.084       .  S
C1119      C1120   1.404       .  A
C1119      C1126   1.444       .  S
C1120      C1121   1.416       .  A
C1121      C1122   1.402       .  A
C1121      H1124   1.085       .  S
C1122      C1125   1.444       .  S
C1125      N1127   1.157       .  T
C1126      N1128   1.157       .  T
C1130      C1587   1.396   1_455  A
C1131      C1586   1.395   1_655  A
C1131      C1132   1.403       .  A
C1131      C1138   1.444       .  S
C1132      C1133   1.418       .  A
C1133      C1590   1.399       .  A
C1133      H1136   1.084       .  S
C1134      C1589   1.402   1_545  A
C1134      C1137   1.443       .  S
C1137      N1139   1.157       .  T
C1138      N1140   1.157   1_655  T
C1141      C1142   1.418       .  A
C1141      C1146   1.410   1_556  A
C1142      C1143   1.410   1_556  A
C1142      H1147   1.085       .  S
C1143      C1144   1.406       .  A
C1143      C1150   1.443       .  S
C1144      C1145   1.412       .  A
C1145      C1146   1.409       .  A
C1145      H1148   1.085       .  S
C1146      C1149   1.442       .  S
C1149      N1151   1.157       .  T
C1150      N1152   1.157   1_655  T
C1153      C1154   1.418       .  A
C1153      C1158   1.408       .  A
C1154      C1155   1.410       .  A
C1154      H1159   1.084       .  S
C1155      C1156   1.409       .  A
C1155      C1162   1.443       .  S
C1156      C1157   1.417       .  A
C1157      C1158   1.403       .  A
C1157      H1160   1.084       .  S
C1158      C1161   1.443       .  S
C1161      N1163   1.157       .  T
C1162      N1164   1.157       .  T
C1165      C1166   1.418       .  A
C1165      C1170   1.412       .  A
C1166      C1167   1.407       .  A
C1166      H1171   1.084       .  S
C1167      C1168   1.405       .  A
C1167      C1174   1.444       .  S
C1168      C1169   1.412       .  A
C1169      C1170   1.413       .  A
C1169      H1172   1.084       .  S
C1170      C1173   1.442       .  S
C1173      N1175   1.157       .  T
C1174      N1176   1.157       .  T
C1177      C1178   1.418       .  A
C1177      C1182   1.406       .  A
C1178      C1179   1.406       .  A
C1178      H1183   1.085       .  S
C1179      C1180   1.407       .  A
C1179      C1186   1.443       .  S
C1180      C1181   1.418       .  A
C1181      C1182   1.404       .  A
C1181      H1184   1.085       .  S
C1182      C1185   1.443       .  S
C1185      N1187   1.157       .  T
C1186      N1188   1.157       .  T
C1189      C1190   1.415       .  A
C1189      C1194   1.401       .  A
C1190      C1647   1.395       .  A
C1190      H1651   1.085       .  S
C1191      C1646   1.398   1_455  A
C1193      C1194   1.395       .  A
C1194      C1197   1.444       .  S
H1195      C1646   1.084       .  S
C1197      N1199   1.157       .  T
C1198      N1200   1.157       .  T
C1201      C1202   1.418       .  A
C1201      C1206   1.408       .  A
C1202      C1203   1.404       .  A
C1202      H1207   1.085       .  S
C1203      C1204   1.400       .  A
C1203      C1210   1.442       .  S
C1204      C1205   1.411       .  A
C1205      C1206   1.398       .  A
C1205      H1208   1.086       .  S
C1206      C1209   1.444       .  S
C1209      N1211   1.157       .  T
C1210      N1212   1.157       .  T
C1213      C1670   1.413       .  A
C1213      C1218   1.402       .  A
C1214      C1669   1.412       .  A
C1214      C1215   1.399       .  A
C1214      H1219   1.085   1_565  S
C1217      C1218   1.399       .  A
C1218      C1221   1.444       .  S
C1221      N1223   1.157       .  T
C1222      N1224   1.157       .  T
C1225      C1226   1.396       .  A
C1225      C1230   1.420       .  A
C1226      C1227   1.405       .  A
C1226      H1231   1.085       .  S
C1227      C1684   1.426       .  A
C1227      C1234   1.445       .  S
C1228      C1683   1.424       .  A
C1228      C1229   1.400   1_565  A
C1229      C1686   1.402   1_545  A
C1229      H1232   1.085       .  S
C1230      C1685   1.403       .  A
C1230      C1689   1.444       .  S
C1233      C1686   1.445   1_545  S
C1233      N1235   1.157       .  T
C1234      N1236   1.157       .  T
C1237      C1238   1.417       .  A
C1237      C1242   1.408       .  A
C1238      C1239   1.410       .  A
C1238      H1243   1.085       .  S
C1239      C1240   1.406       .  A
C1239      C1246   1.443       .  S
C1240      C1241   1.415       .  A
C1241      C1242   1.409       .  A
C1241      H1244   1.085       .  S
C1242      C1245   1.443   1_545  S
C1245      N1247   1.157       .  T
C1246      N1248   1.157       .  T
C1249      C1424   1.498       .  S
C1249      C1706   1.418       .  A
C1249      C1254   1.405       .  A
C1250      C1705   1.418   1_545  A
C1250      C1251   1.401       .  A
C1250      H1255   1.085       .  S
C1251      C1708   1.407   1_545  A
C1251      C1258   1.444       .  S
C1252      C1707   1.407       .  A
C1252      C1253   1.419       .  A
C1253      C1254   1.405       .  A
C1253      H1256   1.085       .  S
C1254      C1257   1.443       .  S
C1257      N1259   1.157       .  T
C1258      N1260   1.157       .  T
C1261      C1262   1.415       .  A
C1261      C1266   1.404       .  A
C1262      C1263   1.410       .  A
C1262      H1267   1.086       .  S
C1263      C1264   1.409       .  A
C1263      C1726   1.442   1_545  S
C1264      C1265   1.418       .  A
C1265      C1266   1.407       .  A
C1265      H1268   1.085       .  S
C1266      C1269   1.443       .  S
C1269      N1271   1.157   1_655  T
C1270      C1719   1.443       .  S
C1270      N1272   1.157       .  T
C1273      C1274   1.418       .  A
C1273      C1278   1.406   1_655  A
C1274      C1275   1.406       .  A
C1274      H1279   1.085       .  S
C1275      C1276   1.407       .  A
C1275      C1282   1.443       .  S
C1276      C1277   1.418   1_655  A
C1277      C1278   1.401       .  A
C1277      H1280   1.085       .  S
C1278      C1281   1.444       .  S
C1281      N1283   1.157       .  T
C1282      N1284   1.157       .  T
C1285      C1742   1.397       .  A
C1285      C1290   1.426       .  A
C1286      C1741   1.401   1_545  A
C1286      C1287   1.407       .  A
C1286      H1291   1.084       .  S
C1287      C1744   1.422   1_545  A
C1287      C1294   1.445       .  S
C1288      C1438   1.499       .  S
C1288      C1743   1.429       .  A
C1288      C1289   1.399       .  A
C1289      C1290   1.403       .  A
C1289      H1292   1.085       .  S
C1290      C1293   1.445       .  S
C1293      N1295   1.157       .  T
C1294      N1296   1.157       .  T
C1297      C1754   1.417       .  A
C1297      C1758   1.410   1_565  A
C1298      C1753   1.419       .  A
C1298      C1299   1.405       .  A
C1298      H1759   1.085       .  S
C1299      C1300   1.402       .  A
C1299      C1306   1.443       .  S
C1300      C1301   1.412       .  A
C1301      C1302   1.405       .  A
C1301      H1304   1.086       .  S
C1302      C1753   1.410       .  A
C1302      C1305   1.443       .  S
H1303      C1754   1.085       .  S
C1305      N1763   1.157       .  T
C1306      N1308   1.157       .  T
N1307      C1761   1.157       .  T
C1309      C1766   1.414       .  A
C1310      C1765   1.416   1_545  A
C1310      H1315   1.085       .  S
C1311      C1312   1.405       .  A
C1312      C1769   1.414       .  A
C1313      C1768   1.416       .  A
C1313      C1314   1.402       .  A
C1313      H1316   1.085       .  S
C1314      C1317   1.444       .  S
C1317      N1319   1.157       .  T
C1318      N1320   1.157       .  T
C1321      C1322   1.414   1_655  A
C1321      C1326   1.404       .  A
C1322      C1323   1.404       .  A
C1322      H1327   1.084       .  S
C1323      C1324   1.409   1_455  A
C1323      C1330   1.444       .  S
C1325      H1328   1.084       .  S
C1329      N1331   1.157       .  T
C1330      N1332   1.157       .  T
C1333      C1334   1.417       .  A
C1334      C1335   1.399       .  A
C1334      H1339   1.084       .  S
C1335      C1792   1.403       .  A
C1335      C1342   1.444       .  S
C1336      C1791   1.403   1_545  A
C1336      C1337   1.416   1_655  A
C1338      C1797   1.443       .  S
C1341      C1794   1.444       .  S
C1341      N1343   1.157       .  T
C1342      N1344   1.157       .  T
C1345      C1346   1.413       .  A
C1345      C1350   1.405       .  A
C1346      C1347   1.409       .  A
C1346      H1351   1.086       .  S
C1347      C1348   1.410       .  A
C1347      C1354   1.442       .  S
C1348      C1349   1.419       .  A
C1349      C1350   1.408       .  A
C1349      H1352   1.085       .  S
C1353      N1355   1.157       .  T
C1354      N1356   1.157       .  T
C1357      C1362   1.409       .  A
C1358      H1363   1.085       .  S
C1359      C1360   1.408   1_455  A
C1360      C1361   1.418       .  A
C1361      C1362   1.408       .  A
C1361      H1364   1.084       .  S
C1362      C1365   1.443       .  S
C1365      N1367   1.157       .  T
C1366      N1368   1.157       .  T
O1369      V1377   1.935       .  S
O1369      C1379   1.276       .  A
O1370      V1377   1.930       .  S
O1370      C1380   1.275       .  A
O1371      V1377   1.883       .  S
O1371      C1381   1.257       .  A
O1372      V1377   1.877       .  S
O1373      V1378   1.944       .  S
O1373      C1382   1.278       .  A
O1374      V1378   1.943       .  S
O1375      V1378   1.852       .  S
O1376      V1378   1.858       .  S
C1381      C1801   1.501       .  S
C1382      C1813   1.503       .  S
O1383      V1391   1.944       .  S
O1383      C1393   1.277       .  A
O1384      V1391   1.942       .  S
O1384      C1394   1.277       .  A
O1385      V1391   1.873       .  S
O1385      C1395   1.256       .  A
O1386      V1391   1.868       .  S
O1386      C1396   1.253       .  A
O1387      V1392   1.945   1_545  S
O1387      C1396   1.279   1_545  A
O1388      V1392   1.950       .  S
O1388      C1395   1.280       .  A
O1389      V1392   1.852   1_545  S
O1389      C1394   1.251   1_545  A
O1390      V1392   1.864       .  S
O1390      C1393   1.252       .  A
V1391      V1392   2.081       .  T
C1393      C1756   1.484       .  S
C1394      C1765   1.486       .  S
C1395      C1804   1.504       .  S
C1396      C1741   1.497       .  S
O1397      V1405   1.931       .  S
O1397      C1407   1.275       .  A
O1398      V1405   1.929       .  S
O1398      C1408   1.274       .  A
O1399      V1405   1.878       .  S
O1399      C1409   1.257       .  A
O1400      V1405   1.869       .  S
O1400      C1410   1.255       .  A
O1401      V1406   1.933   1_455  S
O1401      C1410   1.276   1_455  A
O1402      V1406   1.941       .  S
O1402      C1409   1.277       .  A
O1403      V1406   1.855       .  S
O1403      C1408   1.252       .  A
O1404      V1406   1.873   1_455  S
O1404      C1407   1.255   1_455  A
V1405      V1406   2.083       .  T
C1407      C1777   1.489       .  S
C1408      C1792   1.478       .  S
C1409      C1717   1.500       .  S
C1410      C1729   1.493       .  S
O1411      V1419   1.942       .  S
O1411      C1421   1.279       .  A
O1412      V1419   1.938       .  S
O1412      C1422   1.278       .  A
O1413      V1419   1.869       .  S
O1413      C1423   1.254       .  A
O1414      V1419   1.857       .  S
O1414      C1424   1.252       .  A
O1415      V1420   1.946       .  S
O1416      C1423   1.279       .  A
O1417      V1420   1.852       .  S
O1418      V1420   1.868       .  S
C1421      C1753   1.497       .  S
C1422      C1768   1.485       .  S
C1423      C1720   1.495       .  S
O1425      V1433   1.937       .  S
O1425      C1435   1.277       .  A
O1426      V1433   1.932       .  S
O1426      C1436   1.276       .  A
O1427      V1433   1.876       .  S
O1427      C1437   1.257       .  A
O1428      V1433   1.869       .  S
O1428      C1438   1.253       .  A
O1429      V1434   1.940       .  S
O1430      C1437   1.277       .  A
O1431      V1434   1.856       .  S
O1432      V1434   1.871       .  S
C1435      C1684   1.493       .  S
C1436      C1672   1.481       .  S
C1437      C1693   1.498       .  S
O1439      V1447   1.924       .  S
O1439      C1449   1.273       .  A
O1440      V1447   1.921       .  S
O1440      C1450   1.273       .  A
O1441      V1447   1.874       .  S
O1441      C1451   1.256       .  A
O1442      V1447   1.868       .  S
O1442      C1452   1.255       .  A
O1443      V1448   1.942       .  S
O1443      C1452   1.277       .  A
O1444      V1448   1.942       .  S
O1444      C1451   1.277       .  A
O1445      V1448   1.859       .  S
O1445      C1450   1.253       .  A
O1446      V1448   1.860       .  S
O1446      C1449   1.253       .  A
V1447      V1448   2.082       .  T
C1449      C1660   1.483       .  S
C1450      C1648   1.478       .  S
C1451      C1696   1.494       .  S
C1452      C1636   1.498       .  S
O1453      V1461   1.938       .  S
O1453      C1463   1.276       .  A
O1454      V1461   1.937       .  S
O1454      C1464   1.276       .  A
O1455      V1461   1.873       .  S
O1455      C1465   1.256       .  A
O1456      V1461   1.869       .  S
O1456      C1466   1.255       .  A
O1457      V1462   1.933       .  S
O1457      C1466   1.276       .  A
O1458      V1462   1.938       .  S
O1458      C1465   1.277       .  A
O1459      V1462   1.852       .  S
O1459      C1464   1.251       .  A
O1460      V1462   1.869       .  S
O1460      C1463   1.253       .  A
V1461      V1462   2.082       .  T
C1463      C1681   1.484       .  S
C1464      C1669   1.479       .  S
C1465      C1621   1.501       .  S
C1466      C1708   1.496       .  S
O1467      V1475   1.924       .  S
O1467      C1477   1.273       .  A
O1468      V1475   1.920       .  S
O1468      C1478   1.273       .  A
O1469      V1475   1.871       .  S
O1469      C1479   1.254       .  A
O1470      V1475   1.865       .  S
O1470      C1480   1.254       .  A
O1471      V1476   1.937       .  S
O1471      C1480   1.276       .  A
O1472      V1476   1.938       .  S
O1472      C1479   1.276       .  A
O1473      V1476   1.857       .  S
O1473      C1478   1.253       .  A
O1474      V1476   1.861       .  S
O1474      C1477   1.253       .  A
V1475      V1476   2.083       .  T
C1477      C1657   1.474       .  S
C1478      C1645   1.480       .  S
C1479      C1624   1.483       .  S
C1480      C1609   1.490       .  S
O1481      V1489   1.930       .  S
O1481      C1491   1.275       .  A
O1482      V1489   1.928       .  S
O1482      C1492   1.273       .  A
O1483      V1489   1.885       .  S
O1483      C1493   1.260       .  A
O1484      V1489   1.880       .  S
O1484      C1494   1.258       .  A
O1485      V1490   1.927       .  S
O1485      C1494   1.275       .  A
O1486      V1490   1.939       .  S
O1486      C1493   1.276       .  A
O1487      V1490   1.857       .  S
O1487      C1492   1.252       .  A
O1488      V1490   1.871       .  S
O1488      C1491   1.256       .  A
V1489      V1490   2.078       .  T
C1491      C1573   1.489       .  S
C1492      C1588   1.468       .  S
C1493      C1597   1.509       .  S
C1494      C1612   1.493       .  S
O1495      V1503   1.940       .  S
O1495      C1505   1.277       .  A
O1496      V1503   1.938       .  S
O1496      C1506   1.277       .  A
O1497      V1503   1.880       .  S
O1497      C1507   1.255       .  A
O1498      V1503   1.876       .  S
O1498      C1508   1.256       .  A
O1499      V1504   1.940       .  S
O1499      C1508   1.278   1_455  A
O1500      V1504   1.942   1_655  S
O1500      C1507   1.277       .  A
O1501      V1504   1.853       .  S
O1501      C1506   1.252   1_455  A
O1502      V1504   1.860       .  S
O1502      C1505   1.251   1_455  A
V1503      V1504   2.082   1_655  T
C1505      C1549   1.484       .  S
C1506      C1564   1.491       .  S
C1507      C1600   1.490       .  S
C1508      C1816   1.503       .  S
O1509      V1517   1.934       .  S
O1509      C1519   1.276       .  A
O1510      V1517   1.931       .  S
O1510      C1520   1.274       .  A
O1511      V1517   1.880       .  S
O1511      C1521   1.258       .  A
O1512      V1517   1.878       .  S
O1512      C1522   1.256       .  A
O1513      V1518   1.930       .  S
O1513      C1522   1.276       .  A
O1514      V1518   1.937       .  S
O1514      C1521   1.275       .  A
O1515      V1518   1.855       .  S
O1515      C1520   1.251       .  A
O1516      V1518   1.869       .  S
O1516      C1519   1.255       .  A
V1517      V1518   2.081       .  T
C1519      C1576   1.497       .  S
C1520      C1585   1.472       .  S
C1521      C1540   1.498       .  S
C1522      C1633   1.495       .  S
O1523      V1531   1.942       .  S
O1523      C1533   1.278       .  A
O1524      V1531   1.939       .  S
O1524      C1534   1.277       .  A
O1525      V1531   1.872       .  S
O1525      C1535   1.254       .  A
O1526      V1531   1.861       .  S
O1527      V1532   1.940       .  S
O1527      C1536   1.277       .  A
O1528      V1532   1.941       .  S
O1529      V1532   1.847       .  S
O1530      V1532   1.857       .  S
C1535      C1537   1.492       .  S
C1536      C1732   1.494       .  S
C1537      C1538   1.414       .  A
C1537      C1542   1.405       .  A
C1538      C1539   1.409       .  A
C1538      H1543   1.085       .  S
C1539      C1540   1.409   1_554  A
C1539      C1546   1.443       .  S
C1540      C1541   1.415       .  A
C1541      C1542   1.406   1_556  A
C1541      H1544   1.085       .  S
C1542      C1545   1.443       .  S
C1545      N1547   1.157       .  T
C1546      N1548   1.157       .  T
C1549      C1550   1.413   1_655  A
C1549      C1554   1.402       .  A
C1550      C1551   1.403       .  A
C1550      H1555   1.085       .  S
C1551      C1552   1.407       .  A
C1551      C1558   1.443       .  S
C1553      H1556   1.084       .  S
C1557      N1559   1.157       .  T
C1558      N1560   1.157       .  T
C1561      C1562   1.415       .  A
C1562      H1567   1.085       .  S
C1563      C1564   1.407       .  A
C1563      C1570   1.443       .  S
C1564      C1565   1.417   1_655  A
C1566      C1569   1.443       .  S
C1569      N1571   1.157       .  T
C1570      N1572   1.157       .  T
C1573      C1574   1.414       .  A
C1573      C1578   1.405       .  A
C1574      C1575   1.404       .  A
C1574      H1579   1.085       .  S
C1575      C1576   1.410       .  A
C1575      C1582   1.443       .  S
C1576      C1577   1.417       .  A
C1577      C1578   1.402       .  A
C1577      H1580   1.084       .  S
C1578      C1581   1.444       .  S
C1581      N1583   1.157       .  T
C1582      N1584   1.157       .  T
C1587      C1588   1.403       .  A
C1587      C1594   1.445       .  S
C1588      C1589   1.410       .  A
C1589      H1592   1.085       .  S
C1590      C1593   1.444       .  S
C1593      N1595   1.157       .  T
C1594      N1596   1.157       .  T
C1597      C1598   1.417       .  A
C1597      C1602   1.415       .  A
C1598      C1599   1.406   1_556  A
C1598      H1603   1.085       .  S
C1599      C1600   1.406       .  A
C1599      C1606   1.444       .  S
C1600      C1601   1.410       .  A
C1601      C1602   1.412   1_554  A
C1601      H1604   1.086       .  S
C1602      C1605   1.443       .  S
C1605      N1607   1.157       .  T
C1606      N1608   1.157       .  T
C1609      C1610   1.413       .  A
C1609      C1614   1.406       .  A
C1610      C1611   1.399       .  A
C1610      H1615   1.085       .  S
C1611      C1612   1.408       .  A
C1611      C1618   1.444       .  S
C1612      C1613   1.416       .  A
C1613      C1614   1.407       .  A
C1613      H1616   1.084       .  S
C1614      C1617   1.443       .  S
C1617      N1619   1.157       .  T
C1618      N1620   1.157       .  T
C1621      C1622   1.418       .  A
C1621      C1626   1.411       .  A
C1622      C1623   1.405       .  A
C1622      H1627   1.084       .  S
C1623      C1624   1.404       .  A
C1623      C1630   1.444       .  S
C1624      C1625   1.410       .  A
C1625      C1626   1.407       .  A
C1625      H1628   1.084       .  S
C1626      C1629   1.442       .  S
C1629      N1631   1.157   1_565  T
C1630      N1632   1.157       .  T
C1633      C1634   1.416       .  A
C1633      C1638   1.408       .  A
C1634      C1635   1.409       .  A
C1634      H1639   1.085       .  S
C1635      C1636   1.410       .  A
C1635      C1642   1.443       .  S
C1636      C1637   1.414       .  A
C1637      C1638   1.401       .  A
C1637      H1640   1.085       .  S
C1638      C1641   1.444       .  S
C1641      N1643   1.157       .  T
C1642      N1644   1.157       .  T
C1645      C1646   1.416       .  A
C1645      C1650   1.404       .  A
C1649      C1650   1.394       .  A
C1650      C1653   1.445       .  S
C1653      N1655   1.157       .  T
C1654      N1656   1.157       .  T
C1657      C1658   1.410       .  A
C1657      C1662   1.402       .  A
C1658      C1659   1.398       .  A
C1658      H1663   1.085       .  S
C1659      C1660   1.408       .  A
C1659      C1666   1.444       .  S
C1660      C1661   1.415       .  A
C1661      C1662   1.399       .  A
C1661      H1664   1.085       .  S
C1662      C1665   1.444       .  S
C1665      N1667   1.157       .  T
C1666      N1668   1.157       .  T
C1669      C1674   1.403       .  A
C1670      C1671   1.400       .  A
C1670      H1675   1.085       .  S
C1673      C1674   1.401       .  A
C1674      C1677   1.444       .  S
C1677      N1679   1.157       .  T
C1678      N1680   1.157       .  T
C1681      C1682   1.399       .  A
C1681      C1686   1.418       .  A
C1682      C1683   1.407       .  A
C1682      H1687   1.084       .  S
C1683      C1690   1.445       .  S
C1684      C1685   1.400       .  A
C1685      H1688   1.085       .  S
C1689      N1691   1.157       .  T
C1690      N1692   1.157       .  T
C1693      C1694   1.416       .  A
C1693      C1698   1.407       .  A
C1694      C1695   1.407       .  A
C1694      H1699   1.085       .  S
C1695      C1696   1.407       .  A
C1695      C1702   1.444       .  S
C1696      C1697   1.414       .  A
C1697      C1698   1.407       .  A
C1697      H1700   1.085       .  S
C1698      C1701   1.443       .  S
C1701      N1703   1.157       .  T
C1702      N1704   1.157       .  T
C1705      C1710   1.406       .  A
C1706      C1707   1.402       .  A
C1706      H1711   1.085       .  S
C1707      C1714   1.443       .  S
C1708      C1709   1.418       .  A
C1709      C1710   1.405       .  A
C1709      H1712   1.085       .  S
C1710      C1713   1.443       .  S
C1713      N1715   1.157       .  T
C1714      N1716   1.157       .  T
C1717      C1718   1.417       .  A
C1717      C1722   1.408       .  A
C1718      C1719   1.408       .  A
C1718      H1723   1.085       .  S
C1719      C1720   1.405       .  A
C1720      C1721   1.415       .  A
C1721      C1722   1.407       .  A
C1721      H1724   1.085       .  S
C1722      C1725   1.443       .  S
C1725      N1727   1.157   1_655  T
C1726      N1728   1.157       .  T
C1729      C1730   1.416       .  A
C1729      C1734   1.407   1_655  A
C1730      C1731   1.405       .  A
C1730      H1735   1.085       .  S
C1731      C1732   1.406       .  A
C1731      C1738   1.443       .  S
C1732      C1733   1.416   1_655  A
C1733      C1734   1.401       .  A
C1733      H1736   1.085       .  S
C1734      C1737   1.444       .  S
C1737      N1739   1.157       .  T
C1738      N1740   1.157       .  T
C1741      C1746   1.427       .  A
C1742      C1743   1.403       .  A
C1742      H1747   1.085       .  S
C1743      C1750   1.445       .  S
C1744      C1745   1.397       .  A
C1745      C1746   1.403       .  A
C1745      H1748   1.085       .  S
C1746      C1749   1.445       .  S
C1749      N1751   1.157       .  T
C1750      N1752   1.157       .  T
C1754      C1755   1.407       .  A
C1755      C1756   1.404       .  A
C1755      C1762   1.443       .  S
C1756      C1757   1.410       .  A
C1757      C1758   1.405   1_565  A
C1757      H1760   1.085   1_565  S
C1758      C1761   1.444       .  S
C1762      N1764   1.157       .  T
C1766      H1771   1.085       .  S
C1767      C1768   1.404       .  A
C1769      C1770   1.397       .  A
C1769      H1772   1.085       .  S
C1770      C1773   1.444       .  S
C1773      N1775   1.157       .  T
C1774      N1776   1.157       .  T
C1777      C1778   1.415   1_655  A
C1777      C1782   1.403       .  A
C1778      C1779   1.407       .  A
C1778      H1783   1.084       .  S
C1779      C1780   1.408       .  A
C1779      C1786   1.443       .  S
C1781      H1784   1.084       .  S
C1785      N1787   1.157       .  T
C1786      N1788   1.157       .  T
C1789      C1790   1.418       .  A
C1790      C1791   1.399       .  A
C1790      H1795   1.084       .  S
C1791      C1798   1.444       .  S
C1792      C1793   1.413   1_655  A
C1797      N1799   1.157       .  T
C1798      N1800   1.157       .  T
C1801      C1802   1.416       .  A
C1801      C1806   1.407       .  A
C1802      C1803   1.412       .  A
C1802      H1807   1.085       .  S
C1803      C1804   1.408       .  A
C1803      C1810   1.442   1_565  S
C1804      C1805   1.416       .  A
C1805      C1806   1.407       .  A
C1805      H1808   1.085       .  S
C1809      N1811   1.157       .  T
C1810      N1812   1.157       .  T
C1813      C1818   1.409       .  A
C1814      H1819   1.084       .  S
C1815      C1816   1.409   1_455  A
C1816      C1817   1.418       .  A
C1817      C1818   1.408       .  A
C1817      H1820   1.084       .  S
C1818      C1821   1.443       .  S
C1821      N1823   1.157       .  T
C1822      N1824   1.157       .  T
