geometry optimzed in LAMMPS
_audit_creation_date              2020-12-01 
_audit_creation_method            'lammps2cif' 
_symmetry_space_group_name_H-M    'P1' 
_symmetry_Int_Tables_number       1 
_symmetry_cell_setting            triclinic 
loop_ 
_symmetry_equiv_pos_as_xyz 
  x,y,z 
_cell_length_a                    49.48882133 
_cell_length_b                    49.48918317722569 
_cell_length_c                    29.78198816746452 
_cell_angle_alpha                 90.00020413771058 
_cell_angle_beta                  90.00158651387791 
_cell_angle_gamma                 120.07424028801087 
loop_ 
_atom_site_label 
_atom_site_type_symbol 
_atom_site_fract_x 
_atom_site_fract_y 
_atom_site_fract_z 
_atom_site_charge 
C1          C  0.24436521  0.49317100  0.78971093     0.81300
N2          N  0.27039580  0.49048987  0.78939357    -0.77000
C3          C  0.28324038  0.48866007  0.75024504     0.83700
N4          N  0.27040011  0.49050716  0.71110353    -0.77000
C5          C  0.24437161  0.49319059  0.71079551     0.83800
N6          N  0.23129212  0.49466087  0.75025499    -0.78700
C7          C  0.29786598  0.46704376  0.28971793     0.81300
N8          N  0.27183684  0.46972741  0.28940701    -0.77000
C9          C  0.25899471  0.47156931  0.25026222     0.83700
N10         N  0.27183690  0.46973358  0.21111659    -0.77000
C11         C  0.29786470  0.46704902  0.21080136     0.83800
N12         N  0.31094048  0.46556483  0.25025816    -0.78700
C13         C  0.23063964  0.20322996  0.21083764     0.81300
N14         N  0.25929094  0.22944084  0.21115618    -0.77000
C15         C  0.27395729  0.24237590  0.25029712     0.83700
N16         N  0.25930443  0.22942312  0.28943812    -0.77000
C17         C  0.23065180  0.20321215  0.28975368     0.83800
N18         N  0.21611997  0.19005230  0.25029462    -0.78700
C19         C  0.31155227  0.25695677  0.78975534     0.81300
N20         N  0.32608211  0.27011841  0.75029782    -0.77000
C21         C  0.31156029  0.25694460  0.71083942     0.83700
N22         N  0.28290720  0.23073582  0.71115472    -0.77000
C23         C  0.26824213  0.21779942  0.75029507     0.83800
N24         N  0.28289837  0.23074782  0.78943761    -0.78700
C25         C  0.00608611  0.18985268  0.78967390     0.81300
N26         N  0.00792750  0.21821167  0.78938510    -0.77000
C27         C  0.00936421  0.23265393  0.75023357     0.83700
N28         N  0.00794229  0.21821902  0.71107831    -0.77000
C29         C  0.00609995  0.18985809  0.71078849     0.83800
N30         N  0.00506051  0.17548598  0.75023152    -0.78700
C31         C  0.03609816  0.27030859  0.21081106     0.81300
N32         N  0.03425726  0.24194845  0.21110382    -0.77000
C33         C  0.03283923  0.22751660  0.25026018     0.83700
N34         N  0.03427876  0.24196211  0.28941102    -0.77000
C35         C  0.03611853  0.27032100  0.28969672     0.83800
N36         N  0.03713979  0.28468336  0.25025248    -0.78700
C37         C  0.04942311  0.48163106  0.25024186     0.81300
N38         N  0.04829252  0.00864316  0.25023930    -0.77000
C39         C  0.02020245  0.00766403  0.25023743     0.83700
N40         N  0.49333473  0.47953571  0.25023764    -0.77000
C41         C  0.49399079  0.45230550  0.25023948     0.83800
N42         N  0.02211228  0.45356611  0.25024203    -0.78700
C43         C  0.49277755  0.47853318  0.75027798     0.81300
N44         N  0.49390567  0.45152245  0.75027829    -0.77000
C45         C  0.02199648  0.45250244  0.75028077     0.83700
N46         N  0.04886614  0.48062939  0.75028063    -0.77000
C47         C  0.04821704  0.00786518  0.75027993     0.83800
N48         N  0.02009628  0.00660489  0.75028067    -0.78700
N49         N  0.43381902  0.06878897  0.08782677    -0.02400
C50         C  0.43639836  0.07988221  0.13055225     0.00200
C51         C  0.40777615  0.06501406  0.15183851    -0.22700
C52         C  0.38712521  0.04335629  0.12260679    -0.22900
C53         C  0.40341788  0.04521299  0.08407050     0.00100
H54         H  0.40314572  0.06699041  0.18686680     0.13800
H55         H  0.36346687  0.02564550  0.13057229     0.13900
O56         O  0.46424225  0.10878139  0.19400498    -0.77500
C57         C  0.46452942  0.09403070  0.34156847     0.83600
O58         O  0.05663897  0.19627397  0.25027917    -0.78600
O59         O  0.06059002  0.11483597  0.34107228    -0.80100
O60         O  0.01857210  0.04939063  0.21279496    -0.79900
O61         O  0.98507408  0.08602887  0.15315834    -0.78500
Zn62       Zn  0.99026780  0.12676961  0.25025893     1.55700
O63         O  0.01856368  0.04937725  0.28770630    -0.79900
Cd64       Cd  0.02089020  0.09178677  0.19596985     1.59700
Cd65       Cd  0.06360850  0.15813241  0.25028868     1.59600
O66         O  0.06058988  0.11486378  0.15947157    -0.79900
O67         O  0.02362099  0.11720861  0.25026883    -1.90400
Cd68       Cd  0.02089101  0.09177379  0.30455361     1.59900
O69         O  0.08914305  0.16090916  0.19377690    -0.79800
O70         O  0.98507180  0.08601371  0.34734557    -0.78500
C71         C  0.03142080  0.19726834  0.25026701     0.84100
C72         C  0.46453491  0.09405074  0.15892935     0.83700
O73         O  0.46423525  0.10876370  0.30649665    -0.77400
C74         C  0.01885127  0.03694323  0.25024647     0.84500
O75         O  0.00482276  0.17263644  0.25026342    -0.77500
C76         C  0.08474972  0.14162572  0.16238225     0.84700
C77         C  0.08474443  0.14160450  0.33818923     0.85000
O78         O  0.08913250  0.16090039  0.30681576    -0.80000
N79         N  0.43382387  0.06877604  0.41266919    -0.02400
C80         C  0.43639436  0.07985461  0.36993850     0.00200
C81         C  0.40776983  0.06497673  0.34865745    -0.22700
C82         C  0.38712512  0.04332914  0.37790321    -0.22900
C83         C  0.40342509  0.04519907  0.41643896     0.00100
H84         H  0.40313351  0.06694285  0.31362655     0.13800
H85         H  0.36346307  0.02561330  0.36994830     0.13900
N86         N  0.10840554  0.39140393  0.58786358    -0.02400
C87         C  0.10582361  0.38032458  0.63059830     0.00200
C88         C  0.13444120  0.39521105  0.65189890    -0.22700
C89         C  0.15509146  0.41686459  0.62266494    -0.22900
C90         C  0.13880343  0.41498882  0.58411362     0.00100
H91         H  0.13906750  0.39324576  0.68693277     0.13800
H92         H  0.17874828  0.43458462  0.63063499     0.13900
O93         O  0.07797479  0.35140495  0.69403050    -0.77500
C94         C  0.07768651  0.36612954  0.84159684     0.83600
O95         O  0.48556975  0.26390009  0.75026074    -0.78600
O96         O  0.48163653  0.34533814  0.84109323    -0.80100
O97         O  0.52361886  0.41077494  0.71282760    -0.79900
O98         O  0.05713917  0.37415810  0.65318964    -0.78500
Zn99       Zn  0.05194609  0.33340128  0.75027522     1.55700
O100        O  0.52365646  0.41079646  0.78773856    -0.79900
Cd101      Cd  0.52131548  0.36838699  0.69599106     1.59700
Cd102      Cd  0.47860568  0.30204388  0.75029960     1.59600
O103        O  0.48161921  0.34530941  0.65948185    -0.79900
O104        O  0.51859446  0.34296520  0.75028498    -1.90400
Cd105      Cd  0.52133243  0.36839964  0.80457421     1.59900
O106        O  0.45305977  0.29927335  0.69380282    -0.79800
O107        O  0.05715032  0.37415512  0.84736687    -0.78500
C108        C  0.51078641  0.26290320  0.75024318     0.84100
C109        C  0.07768203  0.36614076  0.65896086     0.83700
O110        O  0.07797723  0.35139333  0.80652607    -0.77400
C111        C  0.52335078  0.42322471  0.75028225     0.84500
O112        O  0.03738597  0.28753330  0.75025062    -0.77500
C113        C  0.45745430  0.31855244  0.66240223     0.84700
C114        C  0.45748137  0.31857024  0.83820897     0.85000
O115        O  0.45309074  0.29927386  0.80683454    -0.80000
N116        N  0.10838757  0.39139068  0.91269949    -0.02400
C117        C  0.10581901  0.38029915  0.86997670     0.00200
C118        C  0.13444568  0.39516837  0.84870304    -0.22700
C119        C  0.15508943  0.41682512  0.87794365    -0.22900
C120        C  0.13878707  0.41496678  0.91647068     0.00100
H121        H  0.13908367  0.39319398  0.81367870     0.13800
H122        H  0.17874876  0.43453930  0.86998672     0.13900
N123        N  0.34391252  0.39206753  0.58744425    -0.02400
C124        C  0.33690555  0.36165287  0.58278970     0.00200
C125        C  0.32335711  0.34517735  0.62158244    -0.22700
C126        C  0.32401605  0.36587797  0.65218348    -0.22900
C127        C  0.33720078  0.39459957  0.63126342     0.00100
H128        H  0.31753037  0.32151396  0.62881651     0.13800
H129        H  0.31854001  0.36113549  0.68752851     0.13900
O130        O  0.36668920  0.42105388  0.80601661    -0.77500
C131        C  0.35214484  0.42263106  0.65986157     0.83600
O132        O  0.46388050  0.00455523  0.75027309    -0.78600
O133        O  0.39329004  0.02279813  0.65712991    -0.80100
O134        O  0.32448213  0.98679572  0.78774488    -0.79900
O135        O  0.34888924  0.44612212  0.84795394    -0.78500
Zn136      Zn  0.38996621  0.44513104  0.75024264     1.55700
O137        O  0.32447733  0.98679366  0.71273022    -0.79900
Cd138      Cd  0.36378290  0.98435511  0.80557797     1.59700
Cd139      Cd  0.42995464  0.01664834  0.75023836     1.59600
O140        O  0.39328617  0.02280833  0.84332533    -0.79900
O141        O  0.38633268  0.98181371  0.75023459    -1.90400
Cd142      Cd  0.36377947  0.98434896  0.69488780     1.59900
O143        O  0.43827948  0.04324572  0.80555281    -0.79800
O144        O  0.34888506  0.44610445  0.65252753    -0.78500
C145        C  0.46250773  0.47828839  0.75026886     0.84100
C146        C  0.35214526  0.42264619  0.84062567     0.83700
O147        O  0.36669152  0.42104339  0.69447166    -0.77400
C148        C  0.31226875  0.98727442  0.75023967     0.84500
O149        O  0.43603381  0.45293215  0.75025459    -0.77500
C150        C  0.42211560  0.04290523  0.83883063     0.84700
C151        C  0.42212492  0.04288345  0.66161596     0.85000
O152        O  0.43828870  0.04321846  0.69489202    -0.80000
N153        N  0.34391157  0.39208797  0.91305089    -0.02400
C154        C  0.33692059  0.36167766  0.91770286     0.00200
C155        C  0.32338569  0.34520225  0.87890657    -0.22700
C156        C  0.32403159  0.36589506  0.84830662    -0.22900
C157        C  0.33720121  0.39461673  0.86922824     0.00100
H158        H  0.31756466  0.32152543  0.87167028     0.13800
H159        H  0.31856123  0.36115273  0.81295642     0.13900
N160        N  0.19829723  0.06811784  0.08745265    -0.02400
C161        C  0.20529689  0.09853073  0.08280563     0.00200
C162        C  0.21883433  0.11500245  0.12160547    -0.22700
C163        C  0.21817812  0.09430188  0.15220281    -0.22900
C164        C  0.20500350  0.06558267  0.13127430     0.00100
H165        H  0.22465587  0.13866752  0.12884502     0.13800
H166        H  0.22364791  0.09904069  0.18754915     0.13900
O167        O  0.17550913  0.03913581  0.30601775    -0.77500
C168        C  0.19005822  0.03754906  0.15986727     0.83600
O169        O  0.07833484  0.45562305  0.25026427    -0.78600
O170        O  0.14892760  0.43738994  0.15715270    -0.80100
O171        O  0.21775359  0.47342799  0.28776717    -0.79900
O172        O  0.19332015  0.51407911  0.34796726    -0.78500
Zn173      Zn  0.15223910  0.51504916  0.25024325     1.55700
O174        O  0.21774984  0.47342071  0.21275134    -0.79900
Cd175      Cd  0.17844263  0.47585178  0.30560282     1.59700
Cd176      Cd  0.11226915  0.44354179  0.25026424     1.59600
O177        O  0.14894266  0.43739791  0.34336096    -0.79900
O178        O  0.15588913  0.47838218  0.25025182    -1.90400
Cd179      Cd  0.17843949  0.47584674  0.19490262     1.59900
O180        O  0.10394624  0.41695894  0.30559209    -0.79800
O181        O  0.19332227  0.51407498  0.15253336    -0.78500
C182        C  0.07969454  0.48187871  0.25024769     0.84100
C183        C  0.19005536  0.03755038  0.34063033     0.83700
O184        O  0.17551149  0.03913549  0.19447657    -0.77400
C185        C  0.22996602  0.47295129  0.25026037     0.84500
O186        O  0.10616698  0.50723696  0.25023641    -0.77500
C187        C  0.12011181  0.41730113  0.33886986     0.84700
C188        C  0.12009607  0.41729700  0.16165193     0.85000
O189        O  0.10393798  0.41695868  0.19493562    -0.80000
N190        N  0.19830558  0.06810872  0.41306382    -0.02400
C191        C  0.20530193  0.09851991  0.41773050     0.00200
C192        C  0.21882544  0.11499746  0.37893260    -0.22700
C193        C  0.21815777  0.09430373  0.34831491    -0.22900
C194        C  0.20499345  0.06558110  0.36923044     0.00100
H195        H  0.22465044  0.13867709  0.37170958     0.13800
H196        H  0.22361691  0.09904842  0.31296246     0.13900
C197        C  0.35852499  0.17630197  0.53295345     0.81300
N198        N  0.32936610  0.15093216  0.53333193    -0.77000
C199        C  0.32542119  0.12180867  0.53294013     0.83700
N200        N  0.35074920  0.11802476  0.53308777    -0.77000
C201        C  0.37988765  0.14322591  0.53267461     0.83800
N202        N  0.38372678  0.17238986  0.53309357    -0.78700
O203        O  0.03525184  0.12287984  0.57950075    -0.77500
C204        C  0.99869928  0.17303102  0.66819284     0.83600
O205        O  0.42194886  0.06979504  0.59673584    -0.78600
O206        O  0.43044794  0.16171246  0.55905018    -0.80100
O207        O  0.01380276  0.19245643  0.48429777    -0.79900
O208        O  0.05093987  0.15682559  0.52314867    -0.78500
Zn209      Zn  0.49841859  0.12499795  0.60447754     1.55700
O210        O  0.00293508  0.20915937  0.54781400    -0.79900
Cd211      Cd  0.00567031  0.14706562  0.50006883     1.59700
Cd212      Cd  0.43784666  0.09915083  0.54300562     1.59600
O213        O  0.47809763  0.11220068  0.44813178    -0.79900
O214        O  0.47958638  0.13473803  0.55563342    -1.90400
Cd215      Cd  0.47297641  0.16850325  0.57624947     1.59900
O216        O  0.44036527  0.07464094  0.48950466    -0.79800
O217        O  0.48070234  0.17700147  0.64225511    -0.78500
C218        C  0.43779535  0.06687250  0.62788707     0.84100
C219        C  0.05708188  0.14547162  0.55784471     0.83700
O220        O  0.01001543  0.15572197  0.65743158    -0.77400
C221        C  0.01423701  0.21414181  0.50871962     0.84500
O222        O  0.46716842  0.08470313  0.63149092    -0.77500
C223        C  0.45302096  0.08508624  0.45148745     0.84700
C224        C  0.40680258  0.13927618  0.54045817     0.85000
O225        O  0.40566772  0.11365867  0.53049295    -0.80000
O226        O  0.03220206  0.30444397  0.34307175    -0.77500
C227        C  0.48515746  0.31471696  0.44266397     0.83600
O228        O  0.12029578  0.39040412  0.40376178    -0.78600
O229        O  0.06414654  0.34797993  0.55236607    -0.80100
O230        O  0.03931065  0.25102710  0.45262656    -0.79900
O231        O  0.06156182  0.28320883  0.35819402    -0.78500
Zn232      Zn  0.04382119  0.33517740  0.39601158     1.55700
O233        O  0.02845263  0.26772827  0.51615485    -0.79900
Cd234      Cd  0.06927904  0.29168750  0.42420545     1.59700
Cd235      Cd  0.10441272  0.36103350  0.45747592     1.59600
O236        O  0.11180237  0.29846196  0.44139925    -0.79900
O237        O  0.06266880  0.32544997  0.44484833    -1.90400
Cd238      Cd  0.03658531  0.31312203  0.50041194     1.59900
O239        O  0.13659254  0.34652070  0.46993714    -0.79800
O240        O  0.49131162  0.30336817  0.47735500    -0.78500
C241        C  0.10444712  0.39330972  0.37259716     0.84100
C242        C  0.04353647  0.28715593  0.33228453     0.83700
O243        O  0.00698255  0.33729544  0.42097904    -0.77400
C244        C  0.02801309  0.24604348  0.49172449     0.84500
O245        O  0.07507689  0.37546315  0.36898112    -0.77500
C246        C  0.13545215  0.32089982  0.45997965     0.84700
C247        C  0.08923413  0.37508713  0.54902703     0.85000
O248        O  0.10192064  0.38552381  0.51102279    -0.80000
O249        O  0.17992782  0.03402558  0.63136459    -0.77500
C250        C  0.15014042  0.44434335  0.55806256     0.83600
O251        O  0.25784445  0.01940395  0.64274012    -0.78600
O252        O  0.24040585  0.48680474  0.48463134    -0.80100
O253        O  0.19587099  0.06008953  0.48969743    -0.79900
O254        O  0.21038783  0.07919301  0.59655744    -0.78500
Zn255      Zn  0.18858480  0.00269587  0.60426338     1.55700
O256        O  0.19692512  0.02332664  0.44775093    -0.79900
Cd257      Cd  0.22348569  0.06311534  0.54271707     1.59700
Cd258      Cd  0.25787468  0.02849094  0.57680539     1.59600
O259        O  0.27004742  0.09543194  0.52966108    -0.79900
O260        O  0.21744005  0.02149948  0.55562140    -1.90400
Cd261      Cd  0.20348434  0.49538998  0.50002370     1.59900
O262        O  0.29346753  0.07155877  0.56063894    -0.79800
O263        O  0.16764228  0.45027204  0.52339074    -0.78500
C264        C  0.23553530  0.50129814  0.66824478     0.84100
C265        C  0.19162288  0.06339552  0.62776527     0.83700
O266        O  0.14942562  0.46629179  0.57928216    -0.77400
C267        C  0.19461330  0.04819987  0.45137403     0.84500
O268        O  0.20702265  0.49044365  0.65714285    -0.77500
C269        C  0.29459403  0.09481318  0.54089213     0.84700
C270        C  0.26216121  0.48709476  0.50868023     0.85000
O271        O  0.26918404  0.49930778  0.54722119    -0.80000
O272        O  0.39280793  0.49389198  0.42124579    -0.77500
C273        C  0.35060415  0.39680615  0.37273701     0.83600
O274        O  0.28439312  0.44082483  0.35777261    -0.78600
O275        O  0.27220228  0.36475508  0.47086198    -0.80100
O276        O  0.34530014  0.43684804  0.55275209    -0.79900
O277        O  0.37459472  0.00990686  0.47714799    -0.78500
Zn278      Zn  0.35364853  0.45750668  0.39624164     1.55700
O279        O  0.34637631  0.40009710  0.51080782    -0.79900
Cd280      Cd  0.33874675  0.46478666  0.50048442     1.59700
Cd281      Cd  0.28435638  0.43168809  0.42369385     1.59600
O282        O  0.30182872  0.47337510  0.51588302    -0.79900
O283        O  0.32479451  0.43869170  0.44488148    -1.90400
Cd284      Cd  0.31875735  0.39707956  0.45779602     1.59900
O285        O  0.27301702  0.46083162  0.45332296    -0.79800
O286        O  0.33184645  0.38100949  0.40395092    -0.78500
C287        C  0.30670017  0.45892931  0.33226834     0.84100
C288        C  0.39209424  0.01584102  0.44247372     0.83700
O289        O  0.36229720  0.42617550  0.36913102    -0.77400
C290        C  0.34761884  0.41197905  0.54913199     0.84500
O291        O  0.33521236  0.46977026  0.34336412    -0.77500
C292        C  0.28005602  0.47306324  0.49185093     0.84700
C293        C  0.24765491  0.36535903  0.45959173     0.85000
O294        O  0.24877858  0.38860300  0.43981552    -0.80000
C295        C  0.18372443  0.28387027  0.46756535     0.81300
N296        N  0.15852318  0.28778332  0.46738801    -0.77000
C297        C  0.16236393  0.31694771  0.46777290     0.83700
N298        N  0.19150204  0.34214722  0.46736177    -0.77000
C299        C  0.21682920  0.33836318  0.46754218     0.83800
N300        N  0.21288457  0.30923941  0.46718647    -0.78700
O301        O  0.41717011  0.32360203  0.63106620    -0.77500
C302        C  0.35542754  0.35090465  0.55679345     0.83600
O303        O  0.32424626  0.24384331  0.64251931    -0.78600
O304        O  0.30860754  0.26052834  0.48412113    -0.80100
O305        O  0.42673589  0.30552281  0.48970659    -0.79900
O306        O  0.42958990  0.29048917  0.59908342    -0.78500
Zn307      Zn  0.37648091  0.31352433  0.60389825     1.55700
O308        O  0.38893984  0.30471254  0.44774917    -0.79900
Cd309      Cd  0.40189731  0.27825042  0.54330234     1.59700
Cd310      Cd  0.33297397  0.24395952  0.57654126     1.59600
O311        O  0.38770259  0.23172818  0.53008451    -0.79900
O312        O  0.36639517  0.28442409  0.55534688    -1.90400
Cd313      Cd  0.35404470  0.29786120  0.49943310     1.59900
O314        O  0.34015404  0.20825743  0.56024479    -0.79800
O315        O  0.34414210  0.33333410  0.52213119    -0.78500
C316        C  0.32843339  0.26603715  0.66819853     0.84100
C317        C  0.43347400  0.31036001  0.62905507     0.83700
O318        O  0.37827967  0.35210477  0.57818340    -0.77400
C319        C  0.41611866  0.30697474  0.45136953     0.84500
O320        O  0.34594153  0.29461560  0.65714564    -0.77500
C321        C  0.36239838  0.20714491  0.54089185     0.84700
C322        C  0.28710641  0.23913661  0.50864844     0.85000
O323        O  0.29233268  0.23267733  0.54752024    -0.80000
O324        O  0.16391612  0.10804439  0.42241418    -0.77500
C325        C  0.10872459  0.14979105  0.37154080     0.83600
O326        O  0.21802727  0.21629973  0.35812753    -0.78600
O327        O  0.15454110  0.22844602  0.47047263    -0.80100
O328        O  0.15326917  0.15543809  0.55283986    -0.79900
O329        O  0.19807581  0.12681507  0.47843812    -0.78500
Zn330      Zn  0.16571254  0.14661985  0.39669070     1.55700
O331        O  0.11549331  0.15465482  0.51086301    -0.79900
Cd332      Cd  0.18816903  0.16228044  0.50117185     1.59700
Cd333      Cd  0.20926718  0.21618849  0.42408623     1.59600
O334        O  0.23360402  0.19960443  0.51653582    -0.79900
O335        O  0.17582699  0.17572703  0.44524985    -1.90400
Cd336      Cd  0.14033505  0.18192016  0.45726771     1.59900
O337        O  0.24988997  0.22746923  0.45315228    -0.79800
O338        O  0.11263885  0.16968888  0.40148455    -0.78500
C339        C  0.21378813  0.19410945  0.33240333     0.84100
C340        C  0.18678342  0.10925234  0.44376911     0.83700
O341        O  0.12500589  0.13652403  0.36955354    -0.77400
C342        C  0.12610052  0.15319687  0.54920547     0.84500
O343        O  0.19623211  0.16552947  0.34341363    -0.77500
C344        C  0.25510926  0.22100303  0.49202261     0.84700
C345        C  0.17984945  0.25302368  0.45966265     0.85000
O346        O  0.20209455  0.25190134  0.44033104    -0.80000
N347        N  0.10993267  0.15669984  0.58775916    -0.02400
C348        C  0.11942752  0.16334471  0.63153164     0.00200
C349        C  0.10403303  0.17648546  0.65288856    -0.22700
C350        C  0.08384798  0.17721199  0.62266224    -0.22900
C351        C  0.08654176  0.16376885  0.58361552     0.00100
H352        H  0.10497036  0.18188955  0.68829761     0.13800
H353        H  0.06599322  0.18298623  0.63035231     0.13900
O354        O  0.11667684  0.13382896  0.80606946    -0.77500
C355        C  0.13271347  0.14846085  0.65985198     0.83600
O356        O  0.10324986  0.03693496  0.75024865    -0.78600
O357        O  0.19207353  0.10785720  0.65694591    -0.80100
O358        O  0.22499961  0.17654170  0.78781171    -0.79900
O359        O  0.15956766  0.15197914  0.84811738    -0.78500
Zn360      Zn  0.11763170  0.11069064  0.75028385     1.55700
O361        O  0.22500113  0.17654703  0.71276779    -0.79900
Cd362      Cd  0.18311227  0.13724818  0.80576375     1.59700
Cd363      Cd  0.14934615  0.07107162  0.75024749     1.59600
O364        O  0.19206131  0.10783129  0.84356722    -0.79900
O365        O  0.15808950  0.11463999  0.75027165    -1.90400
Cd366      Cd  0.18311647  0.13725829  0.69478918     1.59900
O367        O  0.16767795  0.06290401  0.80557891    -0.79800
O368        O  0.15956616  0.15199390  0.65245685    -0.78500
C369        C  0.07829008  0.03818278  0.75027292     0.84100
C370        C  0.13272088  0.14846062  0.84071885     0.83700
O371        O  0.11667056  0.13382270  0.69449719    -0.77400
C372        C  0.23774270  0.18874052  0.75029197     0.84500
O373        O  0.07937439  0.06460647  0.75029097    -0.77500
C374        C  0.18340304  0.07904731  0.83895860     0.84700
C375        C  0.18341037  0.07907049  0.66153301     0.85000
O376        O  0.16767918  0.06291993  0.69490258    -0.80000
N377        N  0.10992771  0.15669858  0.91279514    -0.02400
C378        C  0.11944759  0.16335938  0.86903528     0.00200
C379        C  0.10407193  0.17651651  0.84766800    -0.22700
C380        C  0.08387256  0.17723591  0.87787210    -0.22900
C381        C  0.08654091  0.16377590  0.91691831     0.00100
H382        H  0.10502745  0.18193165  0.81225985     0.13800
H383        H  0.06602126  0.18301435  0.87016072     0.13900
C384        C  0.35850689  0.17631496  0.96756307     0.81300
N385        N  0.32934713  0.15094515  0.96718003    -0.77000
C386        C  0.32540277  0.12182136  0.96753951     0.83700
N387        N  0.35073002  0.11803783  0.96736555    -0.77000
C388        C  0.37986766  0.14323792  0.96777902     0.83800
N389        N  0.38370823  0.17240233  0.96739154    -0.78700
O390        O  0.01001713  0.15574432  0.84305638    -0.77500
C391        C  0.05706392  0.14547828  0.94265169     0.83600
O392        O  0.42193032  0.06980009  0.90372202    -0.78600
O393        O  0.47807588  0.11221266  0.05233635    -0.80100
O394        O  0.00291287  0.20916758  0.95260966    -0.79900
O395        O  0.48065121  0.17697316  0.85817434    -0.78500
Zn396      Zn  0.49840239  0.12501605  0.89599480     1.55700
O397        O  0.01376025  0.19246009  0.01614098    -0.79900
Cd398      Cd  0.47294561  0.16850447  0.92418856     1.59700
Cd399      Cd  0.43781590  0.09915452  0.95745363     1.59600
O400        O  0.43042346  0.16172294  0.94139332    -0.79900
O401        O  0.47955495  0.13474230  0.94482728    -1.90400
Cd402      Cd  0.00563610  0.14707129  0.00039064     1.59900
O403        O  0.40563996  0.11366644  0.96993946    -0.79800
O404        O  0.05090956  0.15682866  0.97733995    -0.78500
C405        C  0.43778002  0.06689396  0.87256087     0.84100
C406        C  0.99867554  0.17302522  0.83226506     0.83700
O407        O  0.03523962  0.12289833  0.92096608    -0.77400
C408        C  0.01420152  0.21414681  0.99171409     0.84500
O409        O  0.46715127  0.08473420  0.86895597    -0.77500
C410        C  0.40677824  0.13928629  0.95998166     0.84700
C411        C  0.45299570  0.08510008  0.04899358     0.85000
O412        O  0.44032030  0.07465534  0.01098413    -0.80000
O413        O  0.00695396  0.33730182  0.07955362    -0.77500
C414        C  0.04349696  0.28713415  0.16821498     0.83600
O415        O  0.12026149  0.39038861  0.09676311    -0.78600
O416        O  0.11175851  0.29847390  0.05908773    -0.80100
O417        O  0.02839316  0.26773019  0.98431485    -0.79900
O418        O  0.49126089  0.30336287  0.02318920    -0.78500
Zn419      Zn  0.04378978  0.33518128  0.10451750     1.55700
O420        O  0.03927856  0.25102398  0.04781313    -0.79900
Cd421      Cd  0.03652812  0.31311944  0.00010143     1.59700
Cd422      Cd  0.10435553  0.36103258  0.04303444     1.59600
O423        O  0.06410638  0.34797791  0.94816285    -0.79900
O424        O  0.06261621  0.32544306  0.05566495    -1.90400
Cd425      Cd  0.06922609  0.29167501  0.07627148     1.59900
O426        O  0.10183407  0.38554404  0.98953574    -0.79800
O427        O  0.06148590  0.28315703  0.14227121    -0.78500
C428        C  0.10442058  0.39330623  0.12792549     0.84100
C429        C  0.48512189  0.31471396  0.05789158     0.83700
O430        O  0.03219075  0.30445330  0.15746288    -0.77400
C431        C  0.02797020  0.24604478  0.00872216     0.84500
O432        O  0.07504849  0.37547244  0.13153815    -0.77500
C433        C  0.08918397  0.37509190  0.95151650     0.84700
C434        C  0.13540176  0.32090941  0.04049324     0.85000
O435        O  0.13653404  0.34652486  0.03052215    -0.80000
O436        O  0.14941022  0.46627251  0.92123412    -0.77500
C437        C  0.19161367  0.06337043  0.87272084     0.83600
O438        O  0.25783487  0.01938880  0.85777365    -0.78600
O439        O  0.27003040  0.09544057  0.97082907    -0.80100
O440        O  0.19691508  0.02334115  0.05275199    -0.79900
O441        O  0.16761969  0.45027577  0.97716622    -0.78500
Zn442      Zn  0.18857440  0.00267337  0.89624202     1.55700
O443        O  0.19587906  0.06011669  0.01081271    -0.79900
Cd444      Cd  0.20346857  0.49539858  0.00048848     1.59700
Cd445      Cd  0.25786160  0.02849335  0.92370328     1.59600
O446        O  0.24038899  0.48681547  0.01588833    -0.79900
O447        O  0.21742579  0.02149585  0.94488524    -1.90400
Cd448      Cd  0.22347338  0.06311361  0.95778338     1.59900
O449        O  0.26917347  0.49932086  0.95330657    -0.79800
O450        O  0.21037114  0.07917043  0.90393540    -0.78500
C451        C  0.23552521  0.50126853  0.83226840     0.84100
C452        C  0.15011970  0.44433283  0.94248863     0.83700
O453        O  0.17992267  0.03400083  0.86911797    -0.77400
C454        C  0.19461033  0.04821816  0.04913297     0.84500
O455        O  0.20701130  0.49040495  0.84337127    -0.77500
C456        C  0.26214732  0.48710803  0.99184622     0.84700
C457        C  0.29457632  0.09482454  0.95959267     0.85000
O458        O  0.29344978  0.07156853  0.93985050    -0.80000
O459        O  0.36226717  0.42617107  0.13139773    -0.77500
C460        C  0.39207530  0.01584763  0.05804531     0.83600
O461        O  0.28437841  0.44081805  0.14275688    -0.78600
O462        O  0.30180046  0.47337223  0.98463661    -0.80100
O463        O  0.34631509  0.40008107  0.98969061    -0.79900
O464        O  0.33182653  0.38100578  0.09656723    -0.78500
Zn465      Zn  0.35362698  0.45750840  0.10426962     1.55700
O466        O  0.34528469  0.43686096  0.94775452    -0.79900
Cd467      Cd  0.31872013  0.39707395  0.04272648     1.59700
Cd468      Cd  0.28433391  0.43169852  0.07682737     1.59600
O469        O  0.27215601  0.36475513  0.02968353    -0.79900
O470        O  0.32476766  0.43869126  0.05563180    -1.90400
Cd471      Cd  0.33872104  0.46478860  0.00003043     1.59900
O472        O  0.24873901  0.38862411  0.06068237    -0.79800
O473        O  0.37457060  0.00991055  0.02337415    -0.78500
C474        C  0.30669052  0.45893287  0.16824872     0.84100
C475        C  0.35057947  0.39680183  0.12778933     0.83700
O476        O  0.39278723  0.49389985  0.07927590    -0.77400
C477        C  0.34758966  0.41198396  0.95137176     0.84500
O478        O  0.33520051  0.46978381  0.15713767    -0.77500
C479        C  0.24761044  0.36537109  0.04092719     0.84700
C480        C  0.28004141  0.47307780  0.00867929     0.85000
O481        O  0.27301501  0.46086354  0.04721837    -0.80000
C482        C  0.18367698  0.28388213  0.03297432     0.81300
N483        N  0.15847583  0.28779508  0.03311974    -0.77000
C484        C  0.16231610  0.31695959  0.03270904     0.83700
N485        N  0.19145484  0.34216028  0.03312612    -0.77000
C486        C  0.21678232  0.33837565  0.03297454     0.83800
N487        N  0.21283644  0.30925167  0.03335678    -0.78700
O488        O  0.37829785  0.35213750  0.92236857    -0.77500
C489        C  0.43350053  0.31038683  0.87155548     0.83600
O490        O  0.32418688  0.24387075  0.85812590    -0.78600
O491        O  0.38768691  0.23174081  0.97048103    -0.80100
O492        O  0.38893491  0.30474600  0.05284363    -0.79900
O493        O  0.34415153  0.33338469  0.97840882    -0.78500
Zn494      Zn  0.37650153  0.31355378  0.89667761     1.55700
O495        O  0.42672013  0.30553393  0.01088859    -0.79900
Cd496      Cd  0.35404696  0.29791396  0.00115689     1.59700
Cd497      Cd  0.33295493  0.24399040  0.92408596     1.59600
O498        O  0.30860483  0.26059956  0.01650975    -0.79900
O499        O  0.36639309  0.28445701  0.94524856    -1.90400
Cd500      Cd  0.40188907  0.27826886  0.95728744     1.59900
O501        O  0.29232952  0.23270318  0.95315067    -0.79800
O502        O  0.42960269  0.29051117  0.90152593    -0.78500
C503        C  0.32841918  0.26605928  0.83240362     0.84100
C504        C  0.35543913  0.35094017  0.94373308     0.83700
O505        O  0.41720099  0.32363330  0.86953453    -0.77400
C506        C  0.41610379  0.30698601  0.04922448     0.84500
O507        O  0.34597358  0.29463954  0.84341325    -0.77500
C508        C  0.28710386  0.23918739  0.99200533     0.84700
C509        C  0.36238085  0.20716185  0.95966316     0.85000
O510        O  0.34013534  0.20828266  0.94032861    -0.80000
O511        O  0.12502300  0.13656567  0.13103496    -0.75700
C512        C  0.18677802  0.10927613  0.05679462     0.83600
O513        O  0.21797483  0.21633249  0.14250277    -0.78600
O514        O  0.23360758  0.19964910  0.98411123    -0.80100
O515        O  0.11547592  0.15465535  0.98969829    -0.79900
O516        O  0.11262196  0.16969825  0.09907440    -0.78500
Zn517      Zn  0.16571788  0.14665301  0.10388540     1.55700
O518        O  0.15327316  0.15546888  0.94774270    -0.79900
Cd519      Cd  0.14031360  0.18193246  0.04329329     1.59700
Cd520      Cd  0.20923609  0.21622668  0.07653121     1.59600
O521        O  0.15450480  0.22845485  0.03007587    -0.79900
O522        O  0.17581654  0.17575933  0.05533710    -1.90400
Cd523      Cd  0.18816842  0.16231904  0.99942627     1.59900
O524        O  0.20204457  0.25192525  0.06026801    -0.79800
O525        O  0.19806793  0.12684553  0.02213354    -0.78500
C526        C  0.21376860  0.19413762  0.16819339     0.84100
C527        C  0.10872816  0.14981740  0.12903422     0.83700
O528        O  0.16392136  0.10807452  0.07817058    -0.77400
C529        C  0.12609475  0.15320719  0.95136152     0.84500
O530        O  0.19624518  0.16555947  0.15714895    -0.77500
C531        C  0.17980370  0.25303828  0.04090373     0.84700
C532        C  0.25510525  0.22105573  0.00862740     0.85000
O533        O  0.24987560  0.22752918  0.04748782    -0.80000
N534        N  0.43228928  0.30348976  0.41280304    -0.02400
C535        C  0.42277097  0.29682998  0.36904102     0.00200
C536        C  0.43815129  0.28367834  0.34767289    -0.22700
C537        C  0.45835161  0.28296102  0.37787907    -0.22900
C538        C  0.45568039  0.29641779  0.41692646     0.00100
H539        H  0.43719667  0.27826479  0.31226708     0.13800
H540        H  0.47620539  0.27718521  0.37016873     0.13900
O541        O  0.42552975  0.32635238  0.30607157    -0.77500
C542        C  0.40946518  0.31170139  0.15986180     0.83600
O543        O  0.43895771  0.42323916  0.25024118    -0.78600
O544        O  0.35012654  0.35233696  0.15696038    -0.80100
O545        O  0.31720551  0.28362930  0.28781571    -0.79900
O546        O  0.38264238  0.30819919  0.34812231    -0.78500
Zn547      Zn  0.42456478  0.34948180  0.25028183     1.55700
O548        O  0.31718853  0.28363745  0.21277166    -0.79900
Cd549      Cd  0.35909240  0.32292518  0.30576801     1.59700
Cd550      Cd  0.39285982  0.38910674  0.25025955     1.59600
O551        O  0.35014349  0.35234037  0.34357511    -0.79900
O552        O  0.38410885  0.34553579  0.25027459    -1.90400
Cd553      Cd  0.35907444  0.32292346  0.19479270     1.59900
O554        O  0.37454204  0.39727256  0.30560278    -0.79800
O555        O  0.38261658  0.30817827  0.15246034    -0.78500
C556        C  0.46391607  0.42198862  0.25024693     0.84100
C557        C  0.40949051  0.31172218  0.34072334     0.83700
O558        O  0.42551044  0.32633843  0.19450656    -0.77400
C559        C  0.30445508  0.27143678  0.25029553     0.84500
O560        O  0.46282827  0.39556337  0.25026261    -0.77500
C561        C  0.35881142  0.38112719  0.33897560     0.84700
C562        C  0.35878897  0.38112333  0.16155673     0.85000
O563        O  0.37451901  0.39726966  0.19493121    -0.80000
N564        N  0.43226136  0.30347552  0.08778562    -0.02400
C565        C  0.42274682  0.29681236  0.13154632     0.00200
C566        C  0.43813957  0.28367194  0.15291175    -0.22700
C567        C  0.45834592  0.28296788  0.12270411    -0.22900
C568        C  0.45566063  0.29641744  0.08365818     0.00100
H569        H  0.43719140  0.27826008  0.18831699     0.13800
H570        H  0.47620165  0.27720087  0.13040735     0.13900
C571        C  0.24437052  0.99317780  0.78971278     0.81300
N572        N  0.27040187  0.99049808  0.78939536    -0.77000
C573        C  0.28324614  0.98866782  0.75024691     0.83700
N574        N  0.27040461  0.99051290  0.71110541    -0.77000
C575        C  0.24437515  0.99319473  0.71079748     0.83800
N576        N  0.23129617  0.99466568  0.75025700    -0.78700
C577        C  0.29785807  0.96703934  0.28971645     0.81300
N578        N  0.27182973  0.96972439  0.28940545    -0.77000
C579        C  0.25898791  0.97156657  0.25026050     0.83700
N580        N  0.27182929  0.96972921  0.21111490    -0.77000
C581        C  0.29785630  0.96704323  0.21080011     0.83800
N582        N  0.31093193  0.96555919  0.25025693    -0.78700
C583        C  0.23063849  0.70323145  0.21083834     0.81300
N584        N  0.25928994  0.72944224  0.21115649    -0.77000
C585        C  0.27395611  0.74237785  0.25029726     0.83700
N586        N  0.25930296  0.72942562  0.28943850    -0.77000
C587        C  0.23065028  0.70321466  0.28975425     0.83800
N588        N  0.21611864  0.69005436  0.25029543    -0.78700
C589        C  0.31154193  0.75695736  0.78975304     0.81300
N590        N  0.32607143  0.77011936  0.75029567    -0.77000
C591        C  0.31155001  0.75694556  0.71083717     0.83700
N592        N  0.28289754  0.73073577  0.71115220    -0.77000
C593        C  0.26823290  0.71779862  0.75029260     0.83800
N594        N  0.28288876  0.73074753  0.78943515    -0.78700
C595        C  0.00608286  0.68985213  0.78967273     0.81300
N596        N  0.00792712  0.71821243  0.78938413    -0.77000
C597        C  0.00936385  0.73265466  0.75023261     0.83700
N598        N  0.00793851  0.71821815  0.71107736    -0.77000
C599        C  0.00609373  0.68985610  0.71078773     0.83800
N600        N  0.00505466  0.67548424  0.75023056    -0.78700
C601        C  0.03609864  0.77030702  0.21080979     0.81300
N602        N  0.03425668  0.74194637  0.21110260    -0.77000
C603        C  0.03283733  0.72751385  0.25025900     0.83700
N604        N  0.03427694  0.74195944  0.28940990    -0.77000
C605        C  0.03611812  0.77031903  0.28969553     0.83800
N606        N  0.03714031  0.78468181  0.25025130    -0.78700
C607        C  0.04942030  0.98163261  0.25024022     0.81300
N608        N  0.04829505  0.50864159  0.25024000    -0.77000
C609        C  0.02020483  0.50766236  0.25023767     0.83700
N610        N  0.49333220  0.97953737  0.25023735    -0.77000
C611        C  0.49398831  0.95230714  0.25023847     0.83800
N612        N  0.02210957  0.95356773  0.25024050    -0.78700
C613        C  0.49278544  0.97854083  0.75027989     0.81300
N614        N  0.49391245  0.95152946  0.75027921    -0.77000
C615        C  0.02200283  0.95250827  0.75028069     0.83700
N616        N  0.04887312  0.98063495  0.75028024    -0.77000
C617        C  0.04820925  0.50785905  0.75027912     0.83800
N618        N  0.02008797  0.50659785  0.75027892    -0.78700
N619        N  0.43381871  0.56878567  0.08782310    -0.02400
C620        C  0.43639779  0.57987780  0.13054936     0.00200
C621        C  0.40777567  0.56500755  0.15183598    -0.22700
C622        C  0.38712557  0.54335025  0.12260378    -0.22900
C623        C  0.40341792  0.54520844  0.08406701     0.00100
H624        H  0.40314497  0.56698327  0.18686458     0.13800
H625        H  0.36346495  0.52563782  0.13056916     0.13900
O626        O  0.46424117  0.60877794  0.19400211    -0.77500
C627        C  0.46452801  0.59402708  0.34156810     0.83600
O628        O  0.05663666  0.69627083  0.25027762    -0.78600
O629        O  0.06058975  0.61483352  0.34107144    -0.80100
O630        O  0.01857358  0.54938882  0.21279500    -0.79900
O631        O  0.98507398  0.58602581  0.15315671    -0.78500
Zn632      Zn  0.99026591  0.62676621  0.25025759     1.55700
O633        O  0.01856421  0.54937478  0.28770621    -0.79900
Cd634      Cd  0.02089021  0.59178448  0.19596932     1.59700
Cd635      Cd  0.06360693  0.65812965  0.25028825     1.59600
O636        O  0.06059025  0.61486155  0.15947132    -0.79900
O637        O  0.02361971  0.61720566  0.25026857    -1.90400
Cd638      Cd  0.02089030  0.59177096  0.30455321     1.59900
O639        O  0.08914247  0.66090681  0.19377706    -0.79800
O640        O  0.98507106  0.58601104  0.34734544    -0.78500
C641        C  0.03141851  0.69726526  0.25026605     0.84100
C642        C  0.46453440  0.59404733  0.15892669     0.83700
O643        O  0.46423318  0.60875948  0.30649587    -0.77400
C644        C  0.01885304  0.53694141  0.25024643     0.84500
O645        O  0.00482042  0.67263327  0.25026277    -0.77500
C646        C  0.08474987  0.64162365  0.16238239     0.84700
C647        C  0.08474354  0.64160252  0.33818885     0.85000
O648        O  0.08913066  0.66089844  0.30681596    -0.80000
N649        N  0.43382355  0.56877238  0.41266979    -0.02400
C650        C  0.43639326  0.57985066  0.36993895     0.00200
C651        C  0.40776880  0.56497065  0.34865784    -0.22700
C652        C  0.38712514  0.54332242  0.37790361    -0.22900
C653        C  0.40342545  0.54519394  0.41643950     0.00100
H654        H  0.40313200  0.56693678  0.31362742     0.13800
H655        H  0.36346241  0.52560640  0.36994952     0.13900
N656        N  0.10840728  0.89140537  0.58786425    -0.02400
C657        C  0.10582529  0.88032461  0.63059807     0.00200
C658        C  0.13444235  0.89521150  0.65189982    -0.22700
C659        C  0.15509252  0.91686701  0.62266786    -0.22900
C660        C  0.13880469  0.91499154  0.58411628     0.00100
H661        H  0.13906831  0.89324546  0.68693418     0.13800
H662        H  0.17874750  0.93458687  0.63063900     0.13900
O663        O  0.07797630  0.85140526  0.69402984    -0.77500
C664        C  0.07768996  0.86613346  0.84159555     0.83600
O665        O  0.48557213  0.76390291  0.75025654    -0.78600
O666        O  0.48163693  0.84533948  0.84109125    -0.80100
O667        O  0.52362373  0.91077973  0.71282639    -0.79900
O668        O  0.05714128  0.87415915  0.65318871    -0.78500
Zn669      Zn  0.05194874  0.83340315  0.75027529     1.55700
O670        O  0.52365988  0.91080002  0.78773741    -0.79900
Cd671      Cd  0.52131775  0.86839006  0.69598945     1.59700
Cd672      Cd  0.47860968  0.80204725  0.75029717     1.59600
O673        O  0.48161950  0.84531239  0.65948161    -0.79900
O674        O  0.51859788  0.84296863  0.75028371    -1.90400
Cd675      Cd  0.52133452  0.86840220  0.80457358     1.59900
O676        O  0.45306255  0.79927589  0.69380215    -0.79800
O677        O  0.05715302  0.87415808  0.84736605    -0.78500
C678        C  0.51078808  0.76290487  0.75024252     0.84100
C679        C  0.07768367  0.86614111  0.65896015     0.83700
O680        O  0.07798083  0.85139713  0.80652487    -0.77400
C681        C  0.52335576  0.92322947  0.75028132     0.84500
O682        O  0.03738819  0.78753445  0.75025315    -0.77500
C683        C  0.45745511  0.81855482  0.66240244     0.84700
C684        C  0.45748216  0.81857115  0.83820532     0.85000
O685        O  0.45309345  0.79927553  0.80683084    -0.80000
N686        N  0.10839211  0.89139594  0.91269742    -0.02400
C687        C  0.10582300  0.88030419  0.86997449     0.00200
C688        C  0.13444915  0.89517406  0.84869966    -0.22700
C689        C  0.15509305  0.91683143  0.87793869    -0.22900
C690        C  0.13879160  0.91497295  0.91646674     0.00100
H691        H  0.13908635  0.89319928  0.81367251     0.13800
H692        H  0.17875383  0.93454750  0.86998002     0.13900
N693        N  0.34391819  0.89207583  0.58744561    -0.02400
C694        C  0.33690956  0.86166048  0.58279337     0.00200
C695        C  0.32336148  0.84518678  0.62158752    -0.22700
C696        C  0.32402182  0.86588912  0.65218671    -0.22900
C697        C  0.33720729  0.89460996  0.63126470     0.00100
H698        H  0.31753395  0.82152455  0.62882318     0.13800
H699        H  0.31854597  0.86114787  0.68753201     0.13900
O700        O  0.36669966  0.92106538  0.80601752    -0.77500
C701        C  0.35215306  0.92264213  0.65986185     0.83600
O702        O  0.46387127  0.50454592  0.75027149    -0.78600
O703        O  0.39328460  0.52278848  0.65712732    -0.80100
O704        O  0.32447536  0.48678675  0.78774329    -0.79900
O705        O  0.34889754  0.94613204  0.84795389    -0.78500
Zn706      Zn  0.38997558  0.94514210  0.75024285     1.55700
O707        O  0.32447055  0.48678390  0.71272836    -0.79900
Cd708      Cd  0.36377556  0.48434564  0.80557825     1.59700
Cd709      Cd  0.42994589  0.51663885  0.75023823     1.59600
O710        O  0.39327993  0.52279994  0.84332584    -0.79900
O711        O  0.38632407  0.48180320  0.75023390    -1.90400
Cd712      Cd  0.36377244  0.48433869  0.69488530     1.59900
O713        O  0.43827266  0.54323695  0.80555199    -0.79800
O714        O  0.34889224  0.94611506  0.65252916    -0.78500
C715        C  0.46251634  0.97829740  0.75027048     0.84100
C716        C  0.35215503  0.92265695  0.84062620     0.83700
O717        O  0.36670067  0.92105474  0.69447121    -0.77400
C718        C  0.31226228  0.48726549  0.75023782     0.84500
O719        O  0.43604215  0.95294177  0.75025532    -0.77500
C720        C  0.42210938  0.54289718  0.83883003     0.84700
C721        C  0.42211905  0.54287516  0.66161571     0.85000
O722        O  0.43828174  0.54321070  0.69489350    -0.80000
N723        N  0.34391848  0.89209529  0.91304933    -0.02400
C724        C  0.33692497  0.86168385  0.91769872     0.00200
C725        C  0.32339029  0.84521070  0.87890080    -0.22700
C726        C  0.32403883  0.86590577  0.84830237    -0.22900
C727        C  0.33720970  0.89462657  0.86922690     0.00100
H728        H  0.31756799  0.82153398  0.87166189     0.13800
H729        H  0.31856940  0.86116568  0.81295424     0.13900
N730        N  0.19829778  0.56811544  0.08745027    -0.02400
C731        C  0.20529858  0.59852866  0.08280217     0.00200
C732        C  0.21883864  0.61500102  0.12160060    -0.22700
C733        C  0.21818334  0.59430094  0.15219748    -0.22900
C734        C  0.20500653  0.56558112  0.13127116     0.00100
H735        H  0.22466066  0.63866708  0.12883993     0.13800
H736        H  0.22365546  0.59904104  0.18754708     0.13900
O737        O  0.17551328  0.53913604  0.30601611    -0.77500
C738        C  0.19006170  0.53754798  0.15986565     0.83600
O739        O  0.07833107  0.95562423  0.25026224    -0.78600
O740        O  0.14892469  0.93739230  0.15715330    -0.80100
O741        O  0.21774768  0.97342667  0.28776527    -0.79900
O742        O  0.19331678  0.01407877  0.34796679    -0.78500
Zn743      Zn  0.15223513  0.01504968  0.25024450     1.55700
O744        O  0.21774529  0.97342220  0.21274969    -0.79900
Cd745      Cd  0.17843784  0.97585214  0.30560129     1.59700
Cd746      Cd  0.11226443  0.94354229  0.25026314     1.59600
O747        O  0.14893820  0.93739913  0.34335897    -0.79900
O748        O  0.15588427  0.97838282  0.25025126    -1.90400
Cd749      Cd  0.17843517  0.97584859  0.19490236     1.59900
O750        O  0.10394145  0.91695939  0.30559096    -0.79800
O751        O  0.19331746  0.01407565  0.15253257    -0.78500
C752        C  0.07969125  0.98188001  0.25024648     0.84100
C753        C  0.19005875  0.53755070  0.34062968     0.83700
O754        O  0.17551426  0.53913468  0.19447400    -0.77400
C755        C  0.22996037  0.97295059  0.25025853     0.84500
O756        O  0.10616372  0.00723811  0.25023617    -0.77500
C757        C  0.12010754  0.91730207  0.33886840     0.84700
C758        C  0.12009354  0.91729857  0.16165164     0.85000
O759        O  0.10393432  0.91695939  0.19493446    -0.80000
N760        N  0.19830662  0.56810797  0.41306385    -0.02400
C761        C  0.20530327  0.59851925  0.41773212     0.00200
C762        C  0.21882768  0.61499755  0.37893502    -0.22700
C763        C  0.21816035  0.59430434  0.34831634    -0.22900
C764        C  0.20499530  0.56558121  0.36923062     0.00100
H765        H  0.22465274  0.63867739  0.37171294     0.13800
H766        H  0.22361978  0.59904955  0.31296479     0.13900
C767        C  0.35851970  0.67629992  0.53295930     0.81300
N768        N  0.32936074  0.65093014  0.53333491    -0.77000
C769        C  0.32541567  0.62180657  0.53294056     0.83700
N770        N  0.35074369  0.61802259  0.53308926    -0.77000
C771        C  0.37988225  0.64322378  0.53267909     0.83800
N772        N  0.38372138  0.67238769  0.53310004    -0.78700
O773        O  0.03524852  0.62287837  0.57950687    -0.77500
C774        C  0.99869315  0.67302885  0.66819256     0.83600
O775        O  0.42194418  0.56978910  0.59673716    -0.78600
O776        O  0.43044467  0.66171210  0.55904822    -0.80100
O777        O  0.01380237  0.69245531  0.48429762    -0.79900
O778        O  0.05093640  0.65682277  0.52315258    -0.78500
Zn779      Zn  0.49841310  0.62499411  0.60448092     1.55700
O780        O  0.00293277  0.70915879  0.54781142    -0.79900
Cd781      Cd  0.00566724  0.64706334  0.50007121     1.59700
Cd782      Cd  0.43784169  0.59914820  0.54301005     1.59600
O783        O  0.47809597  0.61219805  0.44813392    -0.79900
O784        O  0.47958214  0.63473551  0.55563550    -1.90400
Cd785      Cd  0.47297309  0.66850248  0.57624730     1.59900
O786        O  0.44035924  0.57464107  0.48950514    -0.79800
O787        O  0.48069823  0.67700097  0.64225293    -0.78500
C788        C  0.43779015  0.56686595  0.62788859     0.84100
C789        C  0.05707849  0.64546933  0.55784930     0.83700
O790        O  0.01000788  0.65571815  0.65743366    -0.77400
C791        C  0.01423640  0.71414123  0.50871807     0.84500
O792        O  0.46716309  0.58469750  0.63149408    -0.77500
C793        C  0.45301821  0.58508450  0.45148905     0.84700
C794        C  0.40679744  0.63927405  0.54046229     0.85000
O795        O  0.40566137  0.61365528  0.53050188    -0.80000
O796        O  0.03220203  0.80444201  0.34307111    -0.77500
C797        C  0.48515776  0.81471804  0.44266281     0.83600
O798        O  0.12029401  0.89040691  0.40376077    -0.78600
O799        O  0.06414885  0.84798122  0.55236488    -0.80100
O800        O  0.03931320  0.75102727  0.45262559    -0.79900
O801        O  0.06156315  0.78320822  0.35819160    -0.78500
Zn802      Zn  0.04382114  0.83517629  0.39601002     1.55700
O803        O  0.02845279  0.76772842  0.51615210    -0.79900
Cd804      Cd  0.06928087  0.79168793  0.42420305     1.59700
Cd805      Cd  0.10441403  0.86103529  0.45747369     1.59600
O806        O  0.11180385  0.79846225  0.44139650    -0.79900
O807        O  0.06267032  0.82545066  0.44484674    -1.90400
Cd808      Cd  0.03658691  0.81312328  0.50041030     1.59900
O809        O  0.13659452  0.84652230  0.46993044    -0.79800
O810        O  0.49131282  0.80337021  0.47735423    -0.78500
C811        C  0.10444439  0.89331045  0.37259558     0.84100
C812        C  0.04353675  0.78715434  0.33228316     0.83700
O813        O  0.00698246  0.83729503  0.42097556    -0.77400
C814        C  0.02801399  0.74604347  0.49172265     0.84500
O815        O  0.07507470  0.87546153  0.36897854    -0.77500
C816        C  0.13545381  0.82090081  0.45997532     0.84700
C817        C  0.08923683  0.87508837  0.54902683     0.85000
O818        O  0.10192444  0.88552506  0.51102322    -0.80000
O819        O  0.17992451  0.53401952  0.63136459    -0.77500
C820        C  0.15014164  0.94434645  0.55806633     0.83600
O821        O  0.25784154  0.51940212  0.64273951    -0.78600
O822        O  0.24040538  0.98680639  0.48463333    -0.80100
O823        O  0.19586273  0.56008256  0.48969681    -0.79900
O824        O  0.21038222  0.57918736  0.59655699    -0.78500
Zn825      Zn  0.18858222  0.50269127  0.60426063     1.55700
O826        O  0.19692556  0.52332514  0.44774827    -0.79900
Cd827      Cd  0.22347979  0.56311083  0.54271529     1.59700
Cd828      Cd  0.25787135  0.52848747  0.57680358     1.59600
O829        O  0.27004143  0.59542894  0.52965952    -0.79900
O830        O  0.21743694  0.52149568  0.55561866    -1.90400
Cd831      Cd  0.20348519  0.99539285  0.50002725     1.59900
O832        O  0.29346233  0.57155593  0.56063600    -0.79800
O833        O  0.16764310  0.95027517  0.52339421    -0.78500
C834        C  0.23553834  0.00130183  0.66824686     0.84100
C835        C  0.19161843  0.56338931  0.62776557     0.83700
O836        O  0.14942769  0.96629494  0.57928720    -0.77400
C837        C  0.19461072  0.54819663  0.45137237     0.84500
O838        O  0.20702563  0.99044906  0.65714661    -0.77500
C839        C  0.29458835  0.59481053  0.54089043     0.84700
C840        C  0.26216141  0.98709680  0.50868110     0.85000
O841        O  0.26918605  0.99931103  0.54722131    -0.80000
O842        O  0.39280483  0.99389615  0.42123654    -0.77500
C843        C  0.35060441  0.89680803  0.37273644     0.83600
O844        O  0.28438696  0.94082270  0.35777288    -0.78600
O845        O  0.27220352  0.86475680  0.47086394    -0.80100
O846        O  0.34530260  0.93685367  0.55274996    -0.79900
O847        O  0.37459602  0.50990465  0.47715203    -0.78500
Zn848      Zn  0.35364548  0.95750744  0.39623803     1.55700
O849        O  0.34637758  0.90010107  0.51080823    -0.79900
Cd850      Cd  0.33874626  0.96478896  0.50048089     1.59700
Cd851      Cd  0.28435379  0.93168810  0.42369409     1.59600
O852        O  0.30182885  0.97337720  0.51588172    -0.79900
O853        O  0.32479296  0.93869286  0.44487944    -1.90400
Cd854      Cd  0.31875786  0.89708167  0.45779603     1.59900
O855        O  0.27301451  0.96083140  0.45332412    -0.79800
O856        O  0.33184736  0.88101169  0.40395121    -0.78500
C857        C  0.30669327  0.95892651  0.33226717     0.84100
C858        C  0.39209605  0.51583765  0.44247855     0.83700
O859        O  0.36229636  0.92617717  0.36912891    -0.77400
C860        C  0.34762187  0.91198500  0.54913151     0.84500
O861        O  0.33520583  0.96976778  0.34336134    -0.77500
C862        C  0.28005515  0.97306441  0.49185113     0.84700
C863        C  0.24765568  0.86536006  0.45959445     0.85000
O864        O  0.24877815  0.88860330  0.43981789    -0.80000
C865        C  0.18372628  0.78387147  0.46756600     0.81300
N866        N  0.15852489  0.78778428  0.46738535    -0.77000
C867        C  0.16236530  0.81694853  0.46777009     0.83700
N868        N  0.19150321  0.84214801  0.46736168    -0.77000
C869        C  0.21683044  0.83836424  0.46754510     0.83800
N870        N  0.21288629  0.80924071  0.46718950    -0.78700
O871        O  0.41716719  0.82360096  0.63107067    -0.77500
C872        C  0.35542891  0.85090877  0.55679706     0.83600
O873        O  0.32423596  0.74384339  0.64251807    -0.78600
O874        O  0.30860545  0.76052986  0.48412137    -0.80100
O875        O  0.42673185  0.80551736  0.48970832    -0.79900
O876        O  0.42958851  0.79049007  0.59908531    -0.78500
Zn877      Zn  0.37647800  0.81352439  0.60390132     1.55700
O878        O  0.38893886  0.80471411  0.44775150    -0.79900
Cd879      Cd  0.40189307  0.77824883  0.54330655     1.59700
Cd880      Cd  0.33296929  0.74395855  0.57654298     1.59600
O881        O  0.38769725  0.73172592  0.53009102    -0.79900
O882        O  0.36639126  0.78442390  0.55534940    -1.90400
Cd883      Cd  0.35404258  0.79786309  0.49943518     1.59900
O884        O  0.34014918  0.70825557  0.56025214    -0.79800
O885        O  0.34414202  0.83333797  0.52213503    -0.78500
C886        C  0.32842459  0.76603767  0.66819743     0.84100
C887        C  0.43347285  0.81036085  0.62905727     0.83700
O888        O  0.37828009  0.85210673  0.57818691    -0.77400
C889        C  0.41611661  0.80697361  0.45137171     0.84500
O890        O  0.34593634  0.79461609  0.65714661    -0.77500
C891        C  0.36239320  0.70714278  0.54089882     0.84700
C892        C  0.28710462  0.73913534  0.50864582     0.85000
O893        O  0.29233007  0.73267446  0.54751684    -0.80000
O894        O  0.16391743  0.60804387  0.42241244    -0.77500
C895        C  0.10872403  0.64978989  0.37154032     0.83600
O896        O  0.21802376  0.71630167  0.35812703    -0.78600
O897        O  0.15454152  0.72844759  0.47046680    -0.80100
O898        O  0.15326663  0.65543626  0.55283929    -0.79900
O899        O  0.19807539  0.62681432  0.47843859    -0.78500
Zn900      Zn  0.16571244  0.64661961  0.39669120     1.55700
O901        O  0.11549364  0.65466056  0.51086389    -0.79900
Cd902      Cd  0.18816749  0.66227942  0.50117153     1.59700
Cd903      Cd  0.20926725  0.71618783  0.42408689     1.59600
O904        O  0.23360216  0.69960452  0.51653394    -0.79900
O905        O  0.17582592  0.67572648  0.44524993    -1.90400
Cd906      Cd  0.14033511  0.68192169  0.45726559     1.59900
O907        O  0.24989033  0.72746400  0.45314594    -0.79800
O908        O  0.11263878  0.66968887  0.40148248    -0.78500
C909        C  0.21378657  0.69411165  0.33240380     0.84100
C910        C  0.18678396  0.60925156  0.44376932     0.83700
O911        O  0.12500506  0.63652248  0.36955461    -0.77400
C912        C  0.12609902  0.65319763  0.54920549     0.84500
O913        O  0.19623284  0.66553146  0.34341521    -0.77500
C914        C  0.25510831  0.72100064  0.49201871     0.84700
C915        C  0.17985181  0.75302508  0.45966346     0.85000
O916        O  0.20209877  0.75190248  0.44033847    -0.80000
N917        N  0.10992990  0.65669705  0.58776071    -0.02400
C918        C  0.11942390  0.66333933  0.63153387     0.00200
C919        C  0.10402936  0.67647921  0.65289285    -0.22700
C920        C  0.08384493  0.67720763  0.62266754    -0.22900
C921        C  0.08653902  0.66376632  0.58361903     0.00100
H922        H  0.10496576  0.68188108  0.68830341     0.13800
H923        H  0.06599002  0.68298103  0.63035909     0.13900
O924        O  0.11667418  0.63382360  0.80607004    -0.77500
C925        C  0.13270953  0.64845430  0.65985228     0.83600
O926        O  0.10324199  0.53692800  0.75024790    -0.78600
O927        O  0.19207110  0.60785103  0.65694910    -0.80100
O928        O  0.22499357  0.67653716  0.78780951    -0.79900
O929        O  0.15956456  0.65197161  0.84811841    -0.78500
Zn930      Zn  0.11762715  0.61068413  0.75028450     1.55700
O931        O  0.22499421  0.67654314  0.71276572    -0.79900
Cd932      Cd  0.18310814  0.63724111  0.80576224     1.59700
Cd933      Cd  0.14933874  0.57106340  0.75024612     1.59600
O934        O  0.19205817  0.60782372  0.84356232    -0.79900
O935        O  0.15808428  0.61463254  0.75027112    -1.90400
Cd936      Cd  0.18311176  0.63725146  0.69478911     1.59900
O937        O  0.16767087  0.56289544  0.80557679    -0.79800
O938        O  0.15956102  0.65198511  0.65245470    -0.78500
C939        C  0.07828256  0.53817650  0.75027241     0.84100
C940        C  0.13271850  0.64845475  0.84071951     0.83700
O941        O  0.11666744  0.63381719  0.69449852    -0.77400
C942        C  0.23773541  0.68873732  0.75028969     0.84500
O943        O  0.07936774  0.56460057  0.75029081    -0.77500
C944        C  0.18339790  0.57903918  0.83895492     0.84700
C945        C  0.18340540  0.57906353  0.66153362     0.85000
O946        O  0.16767132  0.56291174  0.69490054    -0.80000
N947        N  0.10992597  0.65669536  0.91279407    -0.02400
C948        C  0.11944687  0.66335572  0.86903463     0.00200
C949        C  0.10407212  0.67651322  0.84766561    -0.22700
C950        C  0.08387209  0.67723295  0.87786776    -0.22900
C951        C  0.08653920  0.66377310  0.91691491     0.00100
H952        H  0.10502827  0.68192781  0.81225660     0.13800
H953        H  0.06601998  0.68301111  0.87015392     0.13900
C954        C  0.35849985  0.67631019  0.96754826     0.81300
N955        N  0.32934017  0.65094012  0.96716797    -0.77000
C956        C  0.32539630  0.62181652  0.96753104     0.83700
N957        N  0.35072396  0.61803357  0.96735714    -0.77000
C958        C  0.37986149  0.64323409  0.96776774     0.83800
N959        N  0.38370142  0.67239811  0.96737735    -0.78700
O960        O  0.01001219  0.65574199  0.84305276    -0.77500
C961        C  0.05706107  0.64547558  0.94264592     0.83600
O962        O  0.42192557  0.56979434  0.90371992    -0.78600
O963        O  0.47807437  0.61221068  0.05233184    -0.80100
O964        O  0.00290982  0.70916742  0.95261014    -0.79900
O965        O  0.48064943  0.67697395  0.85817423    -0.78500
Zn966      Zn  0.49839769  0.62501316  0.89598940     1.55700
O967        O  0.01376174  0.69246026  0.01613766    -0.79900
Cd968      Cd  0.47294274  0.66850402  0.92418774     1.59700
Cd969      Cd  0.43781183  0.59915269  0.95744728     1.59600
O970        O  0.43041942  0.66172135  0.94138941    -0.79900
O971        O  0.47955174  0.63474074  0.94482291    -1.90400
Cd972      Cd  0.00563389  0.64706974  0.00038601     1.59900
O973        O  0.40563427  0.61366308  0.96992844    -0.79800
O974        O  0.05090661  0.65682525  0.97733489    -0.78500
C975        C  0.43777448  0.56688794  0.87255807     0.84100
C976        C  0.99867227  0.67302469  0.83226361     0.83700
O977        O  0.03523674  0.62289719  0.92095771    -0.77400
C978        C  0.01420197  0.71414720  0.99171240     0.84500
O979        O  0.46714541  0.58472979  0.86895073    -0.77500
C980        C  0.40677283  0.63928329  0.95997292     0.84700
C981        C  0.45299328  0.58509878  0.04898922     0.85000
O982        O  0.44031515  0.57465577  0.01098070    -0.80000
O983        O  0.00695659  0.83730264  0.07955481    -0.77500
C984        C  0.04349893  0.78713314  0.16821385     0.83600
O985        O  0.12026300  0.89039100  0.09676442    -0.78600
O986        O  0.11176346  0.79847453  0.05908960    -0.80100
O987        O  0.02839552  0.76773172  0.98431405    -0.79900
O988        O  0.49126489  0.80336584  0.02318810    -0.78500
Zn989      Zn  0.04379276  0.83518164  0.10451604     1.55700
O990        O  0.03928426  0.75102517  0.04780943    -0.79900
Cd991      Cd  0.03653299  0.81312238  0.00010086     1.59700
Cd992      Cd  0.10436119  0.86103494  0.04303562     1.59600
O993        O  0.06411176  0.84798244  0.94816279    -0.79900
O994        O  0.06262129  0.82544475  0.05566434    -1.90400
Cd995      Cd  0.06923077  0.79167580  0.07627119     1.59900
O996        O  0.10184346  0.88554635  0.98953404    -0.79800
O997        O  0.06148773  0.78315551  0.14227040    -0.78500
C998        C  0.10442036  0.89330773  0.12792516     0.84100
C999        C  0.48512478  0.81471622  0.05789039     0.83700
O1000       O  0.03219423  0.80445358  0.15746180    -0.77400
C1001       C  0.02797336  0.74604596  0.00871993     0.84500
O1002       O  0.07504853  0.87547280  0.13153657    -0.77500
C1003       C  0.08919062  0.87509572  0.95151574     0.84700
C1004       C  0.13540717  0.82091044  0.04049654     0.85000
O1005       O  0.13654007  0.84652652  0.03052737    -0.80000
O1006       O  0.14941542  0.96627897  0.92123197    -0.77500
C1007       C  0.19160825  0.56336243  0.87271748     0.83600
O1008       O  0.25782916  0.51938199  0.85777185    -0.78600
O1009       O  0.27002361  0.59543443  0.97082526    -0.80100
O1010       O  0.19691266  0.52333722  0.05275149    -0.79900
O1011       O  0.16762475  0.95028132  0.97716298    -0.78500
Zn1012     Zn  0.18856892  0.50266570  0.89624112     1.55700
O1013       O  0.19587059  0.56010886  0.01081084    -0.79900
Cd1014     Cd  0.20347308  0.99540387  0.00048817     1.59700
Cd1015     Cd  0.25785554  0.52848641  0.92370173     1.59600
O1016       O  0.24039234  0.98681950  0.01588874    -0.79900
O1017       O  0.21741999  0.52148907  0.94488426    -1.90400
Cd1018     Cd  0.22346616  0.56310643  0.95778203     1.59900
O1019       O  0.26917853  0.99932692  0.95330838    -0.79800
O1020       O  0.21036436  0.57916243  0.90393322    -0.78500
C1021       C  0.23553090  0.00127606  0.83226976     0.84100
C1022       C  0.15012469  0.94433886  0.94248556     0.83700
O1023       O  0.17991785  0.53399294  0.86911452    -0.77400
C1024       C  0.19460644  0.54821333  0.04913190     0.84500
O1025       O  0.20701713  0.99041358  0.84337188    -0.77500
C1026       C  0.26215108  0.98711256  0.99184710     0.84700
C1027       C  0.29456960  0.59481875  0.95958767     0.85000
O1028       O  0.29344303  0.57156217  0.93984722    -0.80000
O1029       O  0.36226621  0.92617216  0.13140006    -0.77500
C1030       C  0.39207599  0.51584446  0.05803815     0.83600
O1031       O  0.28437269  0.94081243  0.14275509    -0.78600
O1032       O  0.30180366  0.97337613  0.98463787    -0.80100
O1033       O  0.34632153  0.90008626  0.98968967    -0.79900
O1034       O  0.33183019  0.88100794  0.09656401    -0.78500
Zn1035     Zn  0.35362474  0.95750880  0.10427272     1.55700
O1036       O  0.34528919  0.93686612  0.94775640    -0.79900
Cd1037     Cd  0.31872408  0.89707627  0.04272388     1.59700
Cd1038     Cd  0.28433352  0.93169781  0.07682466     1.59600
O1039       O  0.27216084  0.86475597  0.02967831    -0.79900
O1040       O  0.32476845  0.93869230  0.05563208    -1.90400
Cd1041     Cd  0.33872321  0.96479162  0.00003337     1.59900
O1042       O  0.24874192  0.88862393  0.06067468    -0.79800
O1043       O  0.37456986  0.50990794  0.02336872    -0.78500
C1044       C  0.30668357  0.95892808  0.16824795     0.84100
C1045       C  0.35058083  0.89680340  0.12778858     0.83700
O1046       O  0.39278533  0.99390363  0.07928689    -0.77400
C1047       C  0.34759584  0.91198995  0.95137170     0.84500
O1048       O  0.33519413  0.96978119  0.15713821    -0.77500
C1049       C  0.24761472  0.86537140  0.04092021     0.84700
C1050       C  0.28004379  0.97308070  0.00867961     0.85000
O1051       O  0.27301535  0.96086394  0.04721704    -0.80000
C1052       C  0.18368191  0.78388256  0.03297244     0.81300
N1053       N  0.15848072  0.78779555  0.03312151    -0.77000
C1054       C  0.16232103  0.81696003  0.03271028     0.83700
N1055       N  0.19145973  0.84216050  0.03312290    -0.77000
C1056       C  0.21678711  0.83837583  0.03296826     0.83800
N1057       N  0.21284136  0.80925195  0.03335114    -0.78700
O1058       O  0.37829811  0.85213734  0.92236159    -0.77500
C1059       C  0.43349927  0.81038582  0.87154953     0.83600
O1060       O  0.32417441  0.74386983  0.85812352    -0.78600
O1061       O  0.38767961  0.73173541  0.97046803    -0.80100
O1062       O  0.38893564  0.80474733  0.05283776    -0.79900
O1063       O  0.34415218  0.83338608  0.97840250    -0.78500
Zn1064     Zn  0.37649872  0.81355199  0.89667036     1.55700
O1065       O  0.42671601  0.80552401  0.01088371    -0.79900
Cd1066     Cd  0.35404598  0.79791369  0.00115133     1.59700
Cd1067     Cd  0.33294910  0.74398795  0.92408011     1.59600
O1068       O  0.30860454  0.76059905  0.01650826    -0.79900
O1069       O  0.36638937  0.78445478  0.94524181    -1.90400
Cd1070     Cd  0.40188420  0.77826442  0.95727897     1.59900
O1071       O  0.29232673  0.73269935  0.95315244    -0.79800
O1072       O  0.42960087  0.79050988  0.90151994    -0.78500
C1073       C  0.32840971  0.76605896  0.83240047     0.84100
C1074       C  0.35544094  0.85094232  0.94372746     0.83700
O1075       O  0.41719830  0.82363070  0.86952644    -0.77400
C1076       C  0.41610292  0.80698343  0.04921882     0.84500
O1077       O  0.34596903  0.79463894  0.84340752    -0.77500
C1078       C  0.28710304  0.73918464  0.99200726     0.84700
C1079       C  0.36237367  0.70715691  0.95964867     0.85000
O1080       O  0.34012863  0.70827843  0.94031406    -0.80000
O1081       O  0.12502317  0.63656366  0.13103380    -0.75700
C1082       C  0.18677942  0.60927484  0.05679337     0.83600
O1083       O  0.21797141  0.71633300  0.14250477    -0.78600
O1084       O  0.23360669  0.69964844  0.98411356    -0.80100
O1085       O  0.11547720  0.65466031  0.98969797    -0.79900
O1086       O  0.11262387  0.66969846  0.09907705    -0.78500
Zn1087     Zn  0.16571904  0.64665228  0.10388501     1.55700
O1088       O  0.15327177  0.65546686  0.94774358    -0.79900
Cd1089     Cd  0.14031545  0.68193333  0.04329587     1.59700
Cd1090     Cd  0.20923798  0.71622500  0.07653156     1.59600
O1091       O  0.15450782  0.72845586  0.03008131    -0.79900
O1092       O  0.17581712  0.67575816  0.05533713    -1.90400
Cd1093     Cd  0.18816801  0.66231749  0.99942642     1.59900
O1094       O  0.20205133  0.75192563  0.06026078    -0.79800
O1095       O  0.19806810  0.62684392  0.02213165    -0.78500
C1096       C  0.21376747  0.69413844  0.16819426     0.84100
C1097       C  0.10872892  0.64981609  0.12903485     0.83700
O1098       O  0.16392387  0.60807381  0.07817172    -0.77400
C1099       C  0.12609421  0.65320742  0.95136198     0.84500
O1100       O  0.19624699  0.66556008  0.15714818    -0.77500
C1101       C  0.17980882  0.75303896  0.04090228     0.84700
C1102       C  0.25510557  0.72105212  0.00863184     0.85000
O1103       O  0.24987776  0.72752216  0.04749547    -0.80000
N1104       N  0.43228846  0.80349094  0.41280439    -0.02400
C1105       C  0.42276982  0.79683093  0.36904228     0.00200
C1106       C  0.43814970  0.78367894  0.34767405    -0.22700
C1107       C  0.45835017  0.78296152  0.37787979    -0.22900
C1108       C  0.45567954  0.79641866  0.41692728     0.00100
H1109       H  0.43719502  0.77826537  0.31226824     0.13800
H1110       H  0.47620343  0.77718574  0.37016911     0.13900
O1111       O  0.42552887  0.82635326  0.30607212    -0.77500
C1112       C  0.40946566  0.81170327  0.15985829     0.83600
O1113       O  0.43895559  0.92324014  0.25024045    -0.78600
O1114       O  0.35012838  0.85233856  0.15695787    -0.80100
O1115       O  0.31720484  0.78363079  0.28781546    -0.79900
O1116       O  0.38264133  0.80819990  0.34812292    -0.78500
Zn1117     Zn  0.42456430  0.84948275  0.25028080     1.55700
O1118       O  0.31718777  0.78363878  0.21277105    -0.79900
Cd1119     Cd  0.35909203  0.82292614  0.30576811     1.59700
Cd1120     Cd  0.39285881  0.88910690  0.25025922     1.59600
O1121       O  0.35014416  0.85234209  0.34357556    -0.79900
O1122       O  0.38410826  0.84553606  0.25027377    -1.90400
Cd1123     Cd  0.35907445  0.82292414  0.19479097     1.59900
O1124       O  0.37454178  0.89727373  0.30560199    -0.79800
O1125       O  0.38261631  0.80817863  0.15245809    -0.78500
C1126       C  0.46391408  0.92199005  0.25024609     0.84100
C1127       C  0.40948954  0.81172311  0.34072414     0.83700
O1128       O  0.42551071  0.82634045  0.19450331    -0.77400
C1129       C  0.30445425  0.77143840  0.25029527     0.84500
O1130       O  0.46282687  0.89556503  0.25026176    -0.77500
C1131       C  0.35881179  0.88112880  0.33897545     0.84700
C1132       C  0.35879000  0.88112457  0.16155553     0.85000
O1133       O  0.37451860  0.89727010  0.19493128    -0.80000
N1134       N  0.43226286  0.80347781  0.08778156    -0.02400
C1135       C  0.42274781  0.79681459  0.13154245     0.00200
C1136       C  0.43814070  0.78367459  0.15290856    -0.22700
C1137       C  0.45834711  0.78297040  0.12270180    -0.22900
C1138       C  0.45566231  0.79641952  0.08365521     0.00100
H1139       H  0.43719228  0.77826296  0.18831508     0.13800
H1140       H  0.47620424  0.77720341  0.13040653     0.13900
C1141       C  0.74436525  0.49317099  0.78971091     0.81300
N1142       N  0.77039585  0.49048985  0.78939350    -0.77000
C1143       C  0.78324040  0.48866008  0.75024500     0.83700
N1144       N  0.77040010  0.49050717  0.71110350    -0.77000
C1145       C  0.74437157  0.49319058  0.71079551     0.83800
N1146       N  0.73129212  0.49466087  0.75025500    -0.78700
C1147       C  0.79786599  0.46704376  0.28971789     0.81300
N1148       N  0.77183683  0.46972743  0.28940699    -0.77000
C1149       C  0.75899469  0.47156931  0.25026222     0.83700
N1150       N  0.77183691  0.46973358  0.21111661    -0.77000
C1151       C  0.79786472  0.46704901  0.21080136     0.83800
N1152       N  0.81094052  0.46556482  0.25025815    -0.78700
C1153       C  0.73063962  0.20322996  0.21083763     0.81300
N1154       N  0.75929093  0.22944084  0.21115618    -0.77000
C1155       C  0.77395728  0.24237590  0.25029712     0.83700
N1156       N  0.75930442  0.22942313  0.28943812    -0.77000
C1157       C  0.73065178  0.20321216  0.28975367     0.83800
N1158       N  0.71611996  0.19005231  0.25029462    -0.78700
C1159       C  0.81155227  0.25695678  0.78975536     0.81300
N1160       N  0.82608212  0.27011838  0.75029784    -0.77000
C1161       C  0.81156026  0.25694463  0.71083941     0.83700
N1162       N  0.78290723  0.23073579  0.71115474    -0.77000
C1163       C  0.76824215  0.21779942  0.75029509     0.83800
N1164       N  0.78289838  0.23074786  0.78943763    -0.78700
C1165       C  0.50608611  0.18985269  0.78967390     0.81300
N1166       N  0.50792749  0.21821167  0.78938510    -0.77000
C1167       C  0.50936421  0.23265393  0.75023357     0.83700
N1168       N  0.50794228  0.21821901  0.71107830    -0.77000
C1169       C  0.50609995  0.18985807  0.71078847     0.83800
N1170       N  0.50506050  0.17548598  0.75023152    -0.78700
C1171       C  0.53609815  0.27030859  0.21081107     0.81300
N1172       N  0.53425724  0.24194845  0.21110382    -0.77000
C1173       C  0.53283921  0.22751660  0.25026018     0.83700
N1174       N  0.53427875  0.24196211  0.28941102    -0.77000
C1175       C  0.53611852  0.27032100  0.28969672     0.83800
N1176       N  0.53713977  0.28468336  0.25025249    -0.78700
C1177       C  0.54942303  0.48163104  0.25024186     0.81300
N1178       N  0.54829252  0.00864316  0.25023930    -0.77000
C1179       C  0.52020244  0.00766402  0.25023743     0.83700
N1180       N  0.99333474  0.47953569  0.25023764    -0.77000
C1181       C  0.99399084  0.45230549  0.25023948     0.83800
N1182       N  0.52211219  0.45356609  0.25024203    -0.78700
C1183       C  0.99277753  0.47853316  0.75027798     0.81300
N1184       N  0.99390563  0.45152242  0.75027829    -0.77000
C1185       C  0.52199652  0.45250244  0.75028077     0.83700
N1186       N  0.54886617  0.48062937  0.75028063    -0.77000
C1187       C  0.54821704  0.00786518  0.75027993     0.83800
N1188       N  0.52009628  0.00660489  0.75028067    -0.78700
N1189       N  0.93381901  0.06878898  0.08782679    -0.02400
C1190       C  0.93639833  0.07988221  0.13055233     0.00200
C1191       C  0.90777610  0.06501402  0.15183847    -0.22700
C1192       C  0.88712520  0.04335628  0.12260682    -0.22900
C1193       C  0.90341790  0.04521298  0.08407052     0.00100
H1194       H  0.90314542  0.06699043  0.18686743     0.13800
H1195       H  0.86346689  0.02564548  0.13057226     0.13900
O1196       O  0.96424224  0.10878139  0.19400498    -0.77500
C1197       C  0.96452943  0.09403069  0.34156846     0.83600
O1198       O  0.55663896  0.19627397  0.25027917    -0.78600
O1199       O  0.56059003  0.11483599  0.34107231    -0.80100
O1200       O  0.51857208  0.04939062  0.21279497    -0.79900
O1201       O  0.48507410  0.08602888  0.15315831    -0.78500
Zn1202     Zn  0.49026780  0.12676962  0.25025893     1.55700
O1203       O  0.51856367  0.04937725  0.28770630    -0.79900
Cd1204     Cd  0.52089021  0.09178677  0.19596985     1.59700
Cd1205     Cd  0.56360849  0.15813241  0.25028867     1.59600
O1206       O  0.56058991  0.11486375  0.15947165    -0.79900
O1207       O  0.52362099  0.11720861  0.25026883    -1.90400
Cd1208     Cd  0.52089099  0.09177379  0.30455362     1.59900
O1209       O  0.58914307  0.16090920  0.19377686    -0.79800
O1210       O  0.48507176  0.08601370  0.34734560    -0.78500
C1211       C  0.53142079  0.19726834  0.25026701     0.84100
C1212       C  0.96453490  0.09405074  0.15892936     0.83700
O1213       O  0.96423527  0.10876370  0.30649665    -0.77400
C1214       C  0.51885125  0.03694323  0.25024647     0.84500
O1215       O  0.50482275  0.17263644  0.25026342    -0.77500
C1216       C  0.58474975  0.14162571  0.16238229     0.84700
C1217       C  0.58474446  0.14160450  0.33818925     0.85000
O1218       O  0.58913250  0.16090039  0.30681580    -0.80000
N1219       N  0.93382387  0.06877598  0.41266916    -0.02400
C1220       C  0.93639434  0.07985463  0.36993852     0.00200
C1221       C  0.90776983  0.06497671  0.34865746    -0.22700
C1222       C  0.88712517  0.04332915  0.37790321    -0.22900
C1223       C  0.90342505  0.04519907  0.41643902     0.00100
H1224       H  0.90313351  0.06694292  0.31362645     0.13800
H1225       H  0.86346289  0.02561319  0.36994828     0.13900
N1226       N  0.60840553  0.39140396  0.58786360    -0.02400
C1227       C  0.60582358  0.38032454  0.63059830     0.00200
C1228       C  0.63444115  0.39521110  0.65189892    -0.22700
C1229       C  0.65509147  0.41686461  0.62266495    -0.22900
C1230       C  0.63880344  0.41498883  0.58411360     0.00100
H1231       H  0.63906744  0.39324558  0.68693300     0.13800
H1232       H  0.67874836  0.43458468  0.63063493     0.13900
O1233       O  0.57797479  0.35140497  0.69403049    -0.77500
C1234       C  0.57768652  0.36612954  0.84159682     0.83600
O1235       O  0.98556976  0.26390009  0.75026073    -0.78600
O1236       O  0.98163653  0.34533816  0.84109323    -0.80100
O1237       O  0.02361888  0.41077495  0.71282761    -0.79900
O1238       O  0.55713914  0.37415811  0.65318966    -0.78500
Zn1239     Zn  0.55194609  0.33340128  0.75027521     1.55700
O1240       O  0.02365648  0.41079647  0.78773856    -0.79900
Cd1241     Cd  0.02131549  0.36838699  0.69599105     1.59700
Cd1242     Cd  0.97860569  0.30204388  0.75029960     1.59600
O1243       O  0.98161920  0.34530941  0.65948186    -0.79900
O1244       O  0.01859447  0.34296519  0.75028497    -1.90400
Cd1245     Cd  0.02133246  0.36839964  0.80457421     1.59900
O1246       O  0.95305974  0.29927335  0.69380283    -0.79800
O1247       O  0.55715029  0.37415512  0.84736683    -0.78500
C1248       C  0.01078642  0.26290319  0.75024318     0.84100
C1249       C  0.57768201  0.36614079  0.65896087     0.83700
O1250       O  0.57797729  0.35139331  0.80652607    -0.77400
C1251       C  0.02335079  0.42322472  0.75028225     0.84500
O1252       O  0.53738597  0.28753330  0.75025061    -0.77500
C1253       C  0.95745428  0.31855245  0.66240225     0.84700
C1254       C  0.95748136  0.31857025  0.83820899     0.85000
O1255       O  0.95309076  0.29927381  0.80683470    -0.80000
N1256       N  0.60838761  0.39139071  0.91269945    -0.02400
C1257       C  0.60581905  0.38029912  0.86997671     0.00200
C1258       C  0.63444571  0.39516838  0.84870302    -0.22700
C1259       C  0.65508945  0.41682515  0.87794363    -0.22900
C1260       C  0.63878710  0.41496683  0.91647065     0.00100
H1261       H  0.63908370  0.39319399  0.81367871     0.13800
H1262       H  0.67874879  0.43453934  0.86998670     0.13900
N1263       N  0.84391250  0.39206751  0.58744427    -0.02400
C1264       C  0.83690552  0.36165285  0.58278970     0.00200
C1265       C  0.82335709  0.34517731  0.62158243    -0.22700
C1266       C  0.82401603  0.36587796  0.65218348    -0.22900
C1267       C  0.83720077  0.39459958  0.63126343     0.00100
H1268       H  0.81753035  0.32151389  0.62881649     0.13800
H1269       H  0.81854000  0.36113546  0.68752835     0.13900
O1270       O  0.86668918  0.42105388  0.80601661    -0.77500
C1271       C  0.85214482  0.42263105  0.65986157     0.83600
O1272       O  0.96388050  0.00455524  0.75027309    -0.78600
O1273       O  0.89329004  0.02279814  0.65712989    -0.80100
O1274       O  0.82448209  0.98679573  0.78774485    -0.79900
O1275       O  0.84888923  0.44612212  0.84795394    -0.78500
Zn1276     Zn  0.88996618  0.44513104  0.75024264     1.55700
O1277       O  0.82447729  0.98679366  0.71273025    -0.79900
Cd1278     Cd  0.86378290  0.98435511  0.80557797     1.59700
Cd1279     Cd  0.92995463  0.01664834  0.75023837     1.59600
O1280       O  0.89328615  0.02280833  0.84332534    -0.79900
O1281       O  0.88633258  0.98181371  0.75023459    -1.90400
Cd1282     Cd  0.86377947  0.98434896  0.69488780     1.59900
O1283       O  0.93827946  0.04324572  0.80555281    -0.79800
O1284       O  0.84888503  0.44610444  0.65252753    -0.78500
C1285       C  0.96250771  0.47828837  0.75026886     0.84100
C1286       C  0.85214525  0.42264619  0.84062567     0.83700
O1287       O  0.86669149  0.42104335  0.69447166    -0.77400
C1288       C  0.81226871  0.98727442  0.75023968     0.84500
O1289       O  0.93603377  0.45293213  0.75025459    -0.77500
C1290       C  0.92211559  0.04290524  0.83883063     0.84700
C1291       C  0.92212492  0.04288344  0.66161596     0.85000
O1292       O  0.93828868  0.04321844  0.69489206    -0.80000
N1293       N  0.84391156  0.39208797  0.91305089    -0.02400
C1294       C  0.83692058  0.36167766  0.91770286     0.00200
C1295       C  0.82338568  0.34520225  0.87890657    -0.22700
C1296       C  0.82403158  0.36589506  0.84830662    -0.22900
C1297       C  0.83720119  0.39461673  0.86922824     0.00100
H1298       H  0.81756464  0.32152543  0.87167028     0.13800
H1299       H  0.81856122  0.36115273  0.81295642     0.13900
N1300       N  0.69829722  0.06811784  0.08745265    -0.02400
C1301       C  0.70529688  0.09853073  0.08280563     0.00200
C1302       C  0.71883431  0.11500245  0.12160547    -0.22700
C1303       C  0.71817811  0.09430188  0.15220281    -0.22900
C1304       C  0.70500349  0.06558267  0.13127430     0.00100
H1305       H  0.72465586  0.13866752  0.12884502     0.13800
H1306       H  0.72364789  0.09904069  0.18754915     0.13900
O1307       O  0.67550912  0.03913581  0.30601775    -0.77500
C1308       C  0.69005820  0.03754906  0.15986727     0.83600
O1309       O  0.57833482  0.45562305  0.25026428    -0.78600
O1310       O  0.64892758  0.43738994  0.15715270    -0.80100
O1311       O  0.71775364  0.47342800  0.28776719    -0.79900
O1312       O  0.69332014  0.51407911  0.34796726    -0.78500
Zn1313     Zn  0.65223909  0.51504915  0.25024324     1.55700
O1314       O  0.71774988  0.47342071  0.21275134    -0.79900
Cd1315     Cd  0.67844264  0.47585178  0.30560282     1.59700
Cd1316     Cd  0.61226915  0.44354179  0.25026424     1.59600
O1317       O  0.64894262  0.43739786  0.34336093    -0.79900
O1318       O  0.65588903  0.47838217  0.25025182    -1.90400
Cd1319     Cd  0.67843950  0.47584674  0.19490262     1.59900
O1320       O  0.60394622  0.41695891  0.30559202    -0.79800
O1321       O  0.69332226  0.51407497  0.15253337    -0.78500
C1322       C  0.57969450  0.48187870  0.25024769     0.84100
C1323       C  0.69005534  0.03755038  0.34063033     0.83700
O1324       O  0.67551147  0.03913549  0.19447657    -0.77400
C1325       C  0.72996604  0.47295129  0.25026037     0.84500
O1326       O  0.60616696  0.50723695  0.25023641    -0.77500
C1327       C  0.62011175  0.41730114  0.33886987     0.84700
C1328       C  0.62009606  0.41729699  0.16165193     0.85000
O1329       O  0.60393796  0.41695868  0.19493562    -0.80000
N1330       N  0.69830556  0.06810873  0.41306381    -0.02400
C1331       C  0.70530192  0.09851992  0.41773050     0.00200
C1332       C  0.71882543  0.11499746  0.37893259    -0.22700
C1333       C  0.71815776  0.09430373  0.34831491    -0.22900
C1334       C  0.70499344  0.06558110  0.36923044     0.00100
H1335       H  0.72465043  0.13867709  0.37170958     0.13800
H1336       H  0.72361690  0.09904842  0.31296246     0.13900
C1337       C  0.85852502  0.17630196  0.53295345     0.81300
N1338       N  0.82936611  0.15093214  0.53333193    -0.77000
C1339       C  0.82542118  0.12180866  0.53294013     0.83700
N1340       N  0.85074917  0.11802475  0.53308777    -0.77000
C1341       C  0.87988766  0.14322590  0.53267459     0.83800
N1342       N  0.88372681  0.17238987  0.53309357    -0.78700
O1343       O  0.53525187  0.12287984  0.57950068    -0.77500
C1344       C  0.49869927  0.17303100  0.66819279     0.83600
O1345       O  0.92194891  0.06979501  0.59673576    -0.78600
O1346       O  0.93044797  0.16171248  0.55905019    -0.80100
O1347       O  0.51380275  0.19245643  0.48429776    -0.79900
O1348       O  0.55093987  0.15682561  0.52314867    -0.78500
Zn1349     Zn  0.99841861  0.12499796  0.60447771     1.55700
O1350       O  0.50293507  0.20915937  0.54781400    -0.79900
Cd1351     Cd  0.50567029  0.14706562  0.50006881     1.59700
Cd1352     Cd  0.93784678  0.09915084  0.54300562     1.59600
O1353       O  0.97809765  0.11220070  0.44813179    -0.79900
O1354       O  0.97958650  0.13473807  0.55563357    -1.90400
Cd1355     Cd  0.97297641  0.16850325  0.57624948     1.59900
O1356       O  0.94036531  0.07464094  0.48950463    -0.79800
O1357       O  0.98070234  0.17700145  0.64225513    -0.78500
C1358       C  0.93779541  0.06687248  0.62788708     0.84100
C1359       C  0.55708192  0.14547161  0.55784466     0.83700
O1360       O  0.51001541  0.15572194  0.65743146    -0.77400
C1361       C  0.51423699  0.21414181  0.50871961     0.84500
O1362       O  0.96716848  0.08470314  0.63149115    -0.77500
C1363       C  0.95302098  0.08508623  0.45148742     0.84700
C1364       C  0.90680263  0.13927617  0.54045817     0.85000
O1365       O  0.90566785  0.11365868  0.53049301    -0.80000
O1366       O  0.53220205  0.30444397  0.34307175    -0.77500
C1367       C  0.98515747  0.31471698  0.44266400     0.83600
O1368       O  0.62029579  0.39040412  0.40376178    -0.78600
O1369       O  0.56414654  0.34797995  0.55236609    -0.80100
O1370       O  0.53931063  0.25102710  0.45262656    -0.79900
O1371       O  0.56156180  0.28320883  0.35819402    -0.78500
Zn1372     Zn  0.54382119  0.33517741  0.39601158     1.55700
O1373       O  0.52845262  0.26772827  0.51615485    -0.79900
Cd1374     Cd  0.56927903  0.29168750  0.42420545     1.59700
Cd1375     Cd  0.60441271  0.36103350  0.45747593     1.59600
O1376       O  0.61180236  0.29846196  0.44139925    -0.79900
O1377       O  0.56266879  0.32544997  0.44484833    -1.90400
Cd1378     Cd  0.53658530  0.31312204  0.50041194     1.59900
O1379       O  0.63659253  0.34652070  0.46993714    -0.79800
O1380       O  0.99131164  0.30336818  0.47735501    -0.78500
C1381       C  0.60444713  0.39330970  0.37259715     0.84100
C1382       C  0.54353646  0.28715593  0.33228453     0.83700
O1383       O  0.50698255  0.33729544  0.42097904    -0.77400
C1384       C  0.52801307  0.24604348  0.49172449     0.84500
O1385       O  0.57507690  0.37546315  0.36898111    -0.77500
C1386       C  0.63545214  0.32089982  0.45997966     0.84700
C1387       C  0.58923412  0.37508714  0.54902705     0.85000
O1388       O  0.60192062  0.38552381  0.51102279    -0.80000
O1389       O  0.67992781  0.03402558  0.63136460    -0.77500
C1390       C  0.65014044  0.44434337  0.55806253     0.83600
O1391       O  0.75784454  0.01940402  0.64274015    -0.78600
O1392       O  0.74040592  0.48680473  0.48463128    -0.80100
O1393       O  0.69587098  0.06008954  0.48969743    -0.79900
O1394       O  0.71038782  0.07919301  0.59655744    -0.78500
Zn1395     Zn  0.68858479  0.00269586  0.60426338     1.55700
O1396       O  0.69692514  0.02332670  0.44775089    -0.79900
Cd1397     Cd  0.72348569  0.06311536  0.54271707     1.59700
Cd1398     Cd  0.75787467  0.02849095  0.57680540     1.59600
O1399       O  0.77004746  0.09543196  0.52966108    -0.79900
O1400       O  0.71744007  0.02149956  0.55562147    -1.90400
Cd1401     Cd  0.70348444  0.49538999  0.50002370     1.59900
O1402       O  0.79346753  0.07155875  0.56063894    -0.79800
O1403       O  0.66764234  0.45027208  0.52339075    -0.78500
C1404       C  0.73553531  0.50129815  0.66824477     0.84100
C1405       C  0.69162287  0.06339551  0.62776527     0.83700
O1406       O  0.64942562  0.46629179  0.57928215    -0.77400
C1407       C  0.69461328  0.04819989  0.45137402     0.84500
O1408       O  0.70702265  0.49044365  0.65714284    -0.77500
C1409       C  0.79459404  0.09481317  0.54089212     0.84700
C1410       C  0.76216124  0.48709475  0.50868023     0.85000
O1411       O  0.76918404  0.49930778  0.54722119    -0.80000
O1412       O  0.89280793  0.49389196  0.42124585    -0.77500
C1413       C  0.85060413  0.39680614  0.37273700     0.83600
O1414       O  0.78439313  0.44082484  0.35777260    -0.78600
O1415       O  0.77220232  0.36475504  0.47086207    -0.80100
O1416       O  0.84530013  0.43684800  0.55275224    -0.79900
O1417       O  0.87459472  0.00990685  0.47714796    -0.78500
Zn1418     Zn  0.85364854  0.45750670  0.39624168     1.55700
O1419       O  0.84637630  0.40009711  0.51080783    -0.79900
Cd1420     Cd  0.83874674  0.46478666  0.50048461     1.59700
Cd1421     Cd  0.78435639  0.43168810  0.42369386     1.59600
O1422       O  0.80182869  0.47337509  0.51588311    -0.79900
O1423       O  0.82479453  0.43869175  0.44488165    -1.90400
Cd1424     Cd  0.81875734  0.39707956  0.45779603     1.59900
O1425       O  0.77301701  0.46083161  0.45332299    -0.79800
O1426       O  0.83184644  0.38100950  0.40395092    -0.78500
C1427       C  0.80670020  0.45892930  0.33226833     0.84100
C1428       C  0.89209426  0.01584102  0.44247372     0.83700
O1429       O  0.86229717  0.42617549  0.36913102    -0.77400
C1430       C  0.84761883  0.41197902  0.54913205     0.84500
O1431       O  0.83521239  0.46977026  0.34336419    -0.77500
C1432       C  0.78005602  0.47306323  0.49185096     0.84700
C1433       C  0.74765494  0.36535900  0.45959173     0.85000
O1434       O  0.74877855  0.38860297  0.43981549    -0.80000
C1435       C  0.68372441  0.28387027  0.46756535     0.81300
N1436       N  0.65852317  0.28778333  0.46738801    -0.77000
C1437       C  0.66236393  0.31694773  0.46777290     0.83700
N1438       N  0.69150206  0.34214724  0.46736175    -0.77000
C1439       C  0.71682921  0.33836318  0.46754216     0.83800
N1440       N  0.71288456  0.30923941  0.46718647    -0.78700
O1441       O  0.91717008  0.32360203  0.63106610    -0.77500
C1442       C  0.85542752  0.35090465  0.55679342     0.83600
O1443       O  0.82424627  0.24384330  0.64251927    -0.78600
O1444       O  0.80860757  0.26052837  0.48412111    -0.80100
O1445       O  0.92673588  0.30552281  0.48970658    -0.79900
O1446       O  0.92958989  0.29048917  0.59908342    -0.78500
Zn1447     Zn  0.87648089  0.31352433  0.60389809     1.55700
O1448       O  0.88893984  0.30471254  0.44774915    -0.79900
Cd1449     Cd  0.90189730  0.27825042  0.54330233     1.59700
Cd1450     Cd  0.83297396  0.24395952  0.57654124     1.59600
O1451       O  0.88770257  0.23172817  0.53008451    -0.79900
O1452       O  0.86639514  0.28442404  0.55534675    -1.90400
Cd1453     Cd  0.85404469  0.29786120  0.49943308     1.59900
O1454       O  0.84015403  0.20825741  0.56024478    -0.79800
O1455       O  0.84414207  0.33333409  0.52213117    -0.78500
C1456       C  0.82843343  0.26603716  0.66819850     0.84100
C1457       C  0.93347397  0.31036001  0.62905505     0.83700
O1458       O  0.87827967  0.35210479  0.57818333    -0.77400
C1459       C  0.91611865  0.30697473  0.45136951     0.84500
O1460       O  0.84594155  0.29461559  0.65714551    -0.77500
C1461       C  0.86239837  0.20714490  0.54089184     0.84700
C1462       C  0.78710644  0.23913662  0.50864842     0.85000
O1463       O  0.79233271  0.23267736  0.54752023    -0.80000
O1464       O  0.66391612  0.10804436  0.42241420    -0.77500
C1465       C  0.60872467  0.14979104  0.37154077     0.83600
O1466       O  0.71802726  0.21629972  0.35812753    -0.78600
O1467       O  0.65454109  0.22844602  0.47047262    -0.80100
O1468       O  0.65326909  0.15543809  0.55283993    -0.79900
O1469       O  0.69807580  0.12681506  0.47843813    -0.78500
Zn1470     Zn  0.66571262  0.14661985  0.39669070     1.55700
O1471       O  0.61549337  0.15465481  0.51086301    -0.79900
Cd1472     Cd  0.68816902  0.16228043  0.50117185     1.59700
Cd1473     Cd  0.70926717  0.21618849  0.42408624     1.59600
O1474       O  0.73360400  0.19960436  0.51653575    -0.79900
O1475       O  0.67582702  0.17572703  0.44524985    -1.90400
Cd1476     Cd  0.64033507  0.18192016  0.45726772     1.59900
O1477       O  0.74988999  0.22746927  0.45315233    -0.79800
O1478       O  0.61263887  0.16968889  0.40148449    -0.78500
C1479       C  0.71378813  0.19410946  0.33240331     0.84100
C1480       C  0.68678341  0.10925232  0.44376913     0.83700
O1481       O  0.62500598  0.13652399  0.36955354    -0.77400
C1482       C  0.62610049  0.15319688  0.54920550     0.84500
O1483       O  0.69623217  0.16552948  0.34341360    -0.77500
C1484       C  0.75510927  0.22100299  0.49202259     0.84700
C1485       C  0.67984943  0.25302368  0.45966265     0.85000
O1486       O  0.70209453  0.25190134  0.44033104    -0.80000
N1487       N  0.60993269  0.15669986  0.58775918    -0.02400
C1488       C  0.61942753  0.16334472  0.63153165     0.00200
C1489       C  0.60403302  0.17648544  0.65288855    -0.22700
C1490       C  0.58384800  0.17721197  0.62266219    -0.22900
C1491       C  0.58654178  0.16376885  0.58361550     0.00100
H1492       H  0.60497033  0.18188954  0.68829758     0.13800
H1493       H  0.56599321  0.18298620  0.63035223     0.13900
O1494       O  0.61667682  0.13382897  0.80606946    -0.77500
C1495       C  0.63271347  0.14846086  0.65985200     0.83600
O1496       O  0.60324985  0.03693496  0.75024864    -0.78600
O1497       O  0.69207350  0.10785719  0.65694590    -0.80100
O1498       O  0.72499960  0.17654176  0.78781168    -0.79900
O1499       O  0.65956765  0.15197913  0.84811739    -0.78500
Zn1500     Zn  0.61763168  0.11069064  0.75028385     1.55700
O1501       O  0.72500114  0.17654697  0.71276777    -0.79900
Cd1502     Cd  0.68311227  0.13724819  0.80576374     1.59700
Cd1503     Cd  0.64934614  0.07107163  0.75024749     1.59600
O1504       O  0.69206137  0.10783133  0.84356712    -0.79900
O1505       O  0.65808949  0.11463999  0.75027165    -1.90400
Cd1506     Cd  0.68311647  0.13725828  0.69478918     1.59900
O1507       O  0.66767792  0.06290401  0.80557897    -0.79800
O1508       O  0.65956616  0.15199391  0.65245687    -0.78500
C1509       C  0.57829007  0.03818278  0.75027292     0.84100
C1510       C  0.63272087  0.14846062  0.84071885     0.83700
O1511       O  0.61667055  0.13382270  0.69449720    -0.77400
C1512       C  0.73774274  0.18874048  0.75029194     0.84500
O1513       O  0.57937438  0.06460647  0.75029097    -0.77500
C1514       C  0.68340311  0.07904734  0.83895855     0.84700
C1515       C  0.68341035  0.07907048  0.66153301     0.85000
O1516       O  0.66767917  0.06291993  0.69490259    -0.80000
N1517       N  0.60992768  0.15669857  0.91279514    -0.02400
C1518       C  0.61944758  0.16335938  0.86903529     0.00200
C1519       C  0.60407192  0.17651650  0.84766800    -0.22700
C1520       C  0.58387256  0.17723590  0.87787212    -0.22900
C1521       C  0.58654088  0.16377589  0.91691832     0.00100
H1522       H  0.60502743  0.18193164  0.81225988     0.13800
H1523       H  0.56602123  0.18301434  0.87016075     0.13900
C1524       C  0.85850691  0.17631498  0.96756306     0.81300
N1525       N  0.82934716  0.15094516  0.96718003    -0.77000
C1526       C  0.82540280  0.12182137  0.96753951     0.83700
N1527       N  0.85073004  0.11803782  0.96736555    -0.77000
C1528       C  0.87986765  0.14323791  0.96777903     0.83800
N1529       N  0.88370820  0.17240232  0.96739154    -0.78700
O1530       O  0.51001709  0.15574431  0.84305637    -0.77500
C1531       C  0.55706388  0.14547826  0.94265168     0.83600
O1532       O  0.92193033  0.06980010  0.90372202    -0.78600
O1533       O  0.97807587  0.11221266  0.05233635    -0.80100
O1534       O  0.50291286  0.20916757  0.95260964    -0.79900
O1535       O  0.98065122  0.17697314  0.85817433    -0.78500
Zn1536     Zn  0.99840247  0.12501604  0.89599480     1.55700
O1537       O  0.51376023  0.19246009  0.01614097    -0.79900
Cd1538     Cd  0.97294561  0.16850447  0.92418856     1.59700
Cd1539     Cd  0.93781590  0.09915453  0.95745362     1.59600
O1540       O  0.93042346  0.16172292  0.94139332    -0.79900
O1541       O  0.97955501  0.13474229  0.94482723    -1.90400
Cd1542     Cd  0.50563609  0.14707130  0.00039064     1.59900
O1543       O  0.90563996  0.11366642  0.96993946    -0.79800
O1544       O  0.55090955  0.15682866  0.97733995    -0.78500
C1545       C  0.93778003  0.06689397  0.87256087     0.84100
C1546       C  0.49867552  0.17302523  0.83226506     0.83700
O1547       O  0.53523954  0.12289836  0.92096603    -0.77400
C1548       C  0.51420149  0.21414680  0.99171407     0.84500
O1549       O  0.96715129  0.08473420  0.86895599    -0.77500
C1550       C  0.90677824  0.13928628  0.95998166     0.84700
C1551       C  0.95299569  0.08510008  0.04899358     0.85000
O1552       O  0.94032028  0.07465534  0.01098413    -0.80000
O1553       O  0.50695396  0.33730183  0.07955361    -0.77500
C1554       C  0.54349695  0.28713415  0.16821499     0.83600
O1555       O  0.62026147  0.39038861  0.09676311    -0.78600
O1556       O  0.61175847  0.29847386  0.05908772    -0.80100
O1557       O  0.52839315  0.26773018  0.98431487    -0.79900
O1558       O  0.99126090  0.30336286  0.02318920    -0.78500
Zn1559     Zn  0.54378977  0.33518127  0.10451750     1.55700
O1560       O  0.53927847  0.25102385  0.04781311    -0.79900
Cd1561     Cd  0.53652812  0.31311944  0.00010145     1.59700
Cd1562     Cd  0.60435552  0.36103256  0.04303446     1.59600
O1563       O  0.56410643  0.34797791  0.94816291    -0.79900
O1564       O  0.56261618  0.32544295  0.05566498    -1.90400
Cd1565     Cd  0.56922601  0.29167487  0.07627148     1.59900
O1566       O  0.60183416  0.38554405  0.98953573    -0.79800
O1567       O  0.56148586  0.28315697  0.14227123    -0.78500
C1568       C  0.60442057  0.39330623  0.12792549     0.84100
C1569       C  0.98512189  0.31471396  0.05789158     0.83700
O1570       O  0.53219074  0.30445330  0.15746288    -0.77400
C1571       C  0.52797015  0.24604474  0.00872213     0.84500
O1572       O  0.57504848  0.37547244  0.13153815    -0.77500
C1573       C  0.58918410  0.37509186  0.95151650     0.84700
C1574       C  0.63540174  0.32090939  0.04049326     0.85000
O1575       O  0.63653401  0.34652484  0.03052218    -0.80000
O1576       O  0.64941021  0.46627251  0.92123411    -0.77500
C1577       C  0.69161368  0.06337042  0.87272084     0.83600
O1578       O  0.75783486  0.01938880  0.85777365    -0.78600
O1579       O  0.77003040  0.09544058  0.97082907    -0.80100
O1580       O  0.69691507  0.02334115  0.05275199    -0.79900
O1581       O  0.66761967  0.45027576  0.97716623    -0.78500
Zn1582     Zn  0.68857438  0.00267336  0.89624202     1.55700
O1583       O  0.69587905  0.06011669  0.01081271    -0.79900
Cd1584     Cd  0.70346856  0.49539857  0.00048847     1.59700
Cd1585     Cd  0.75786159  0.02849335  0.92370328     1.59600
O1586       O  0.74038898  0.48681547  0.01588833    -0.79900
O1587       O  0.71742577  0.02149585  0.94488524    -1.90400
Cd1588     Cd  0.72347337  0.06311361  0.95778338     1.59900
O1589       O  0.76917346  0.49932087  0.95330658    -0.79800
O1590       O  0.71037113  0.07917041  0.90393542    -0.78500
C1591       C  0.73552527  0.50126852  0.83226840     0.84100
C1592       C  0.65011969  0.44433284  0.94248862     0.83700
O1593       O  0.67992265  0.03400081  0.86911798    -0.77400
C1594       C  0.69461032  0.04821816  0.04913297     0.84500
O1595       O  0.70701140  0.49040503  0.84337127    -0.77500
C1596       C  0.76214731  0.48710803  0.99184623     0.84700
C1597       C  0.79457633  0.09482456  0.95959267     0.85000
O1598       O  0.79344977  0.07156853  0.93985050    -0.80000
O1599       O  0.86226716  0.42617107  0.13139774    -0.77500
C1600       C  0.89207536  0.01584763  0.05804530     0.83600
O1601       O  0.78437842  0.44081801  0.14275693    -0.78600
O1602       O  0.80180044  0.47337222  0.98463662    -0.80100
O1603       O  0.84631508  0.40008107  0.98969061    -0.79900
O1604       O  0.83182652  0.38100578  0.09656723    -0.78500
Zn1605     Zn  0.85362699  0.45750841  0.10426961     1.55700
O1606       O  0.84528468  0.43686096  0.94775452    -0.79900
Cd1607     Cd  0.81872012  0.39707395  0.04272648     1.59700
Cd1608     Cd  0.78433390  0.43169852  0.07682736     1.59600
O1609       O  0.77215599  0.36475513  0.02968353    -0.79900
O1610       O  0.82476757  0.43869126  0.05563180    -1.90400
Cd1611     Cd  0.83872103  0.46478860  0.00003043     1.59900
O1612       O  0.74873900  0.38862411  0.06068238    -0.79800
O1613       O  0.87457060  0.00991051  0.02337424    -0.78500
C1614       C  0.80669060  0.45893287  0.16824872     0.84100
C1615       C  0.85057946  0.39680183  0.12778933     0.83700
O1616       O  0.89278723  0.49389985  0.07927589    -0.77400
C1617       C  0.84758965  0.41198396  0.95137176     0.84500
O1618       O  0.83520063  0.46978389  0.15713766    -0.77500
C1619       C  0.74761043  0.36537109  0.04092720     0.84700
C1620       C  0.78004139  0.47307779  0.00867930     0.85000
O1621       O  0.77301500  0.46086355  0.04721839    -0.80000
C1622       C  0.68367696  0.28388212  0.03297433     0.81300
N1623       N  0.65847581  0.28779508  0.03311974    -0.77000
C1624       C  0.66231609  0.31695959  0.03270905     0.83700
N1625       N  0.69145482  0.34216029  0.03312613    -0.77000
C1626       C  0.71678230  0.33837565  0.03297454     0.83800
N1627       N  0.71283642  0.30925166  0.03335678    -0.78700
O1628       O  0.87829784  0.35213750  0.92236857    -0.77500
C1629       C  0.93350055  0.31038681  0.87155547     0.83600
O1630       O  0.82418687  0.24387075  0.85812591    -0.78600
O1631       O  0.88768693  0.23174083  0.97048104    -0.80100
O1632       O  0.88893490  0.30474600  0.05284363    -0.79900
O1633       O  0.84415151  0.33338469  0.97840882    -0.78500
Zn1634     Zn  0.87650154  0.31355379  0.89667760     1.55700
O1635       O  0.92672012  0.30553393  0.01088859    -0.79900
Cd1636     Cd  0.85404694  0.29791396  0.00115689     1.59700
Cd1637     Cd  0.83295492  0.24399040  0.92408597     1.59600
O1638       O  0.80860482  0.26059956  0.01650975    -0.79900
O1639       O  0.86639308  0.28445701  0.94524856    -1.90400
Cd1640     Cd  0.90188906  0.27826887  0.95728744     1.59900
O1641       O  0.79232951  0.23270318  0.95315067    -0.79800
O1642       O  0.92960269  0.29051114  0.90152594    -0.78500
C1643       C  0.82841917  0.26605929  0.83240363     0.84100
C1644       C  0.85543912  0.35094017  0.94373308     0.83700
O1645       O  0.91720104  0.32363329  0.86953447    -0.77400
C1646       C  0.91610378  0.30698602  0.04922448     0.84500
O1647       O  0.84597357  0.29463954  0.84341326    -0.77500
C1648       C  0.78710385  0.23918739  0.99200533     0.84700
C1649       C  0.86238087  0.20716185  0.95966314     0.85000
O1650       O  0.84013535  0.20828264  0.94032863    -0.80000
O1651       O  0.62502301  0.13656570  0.13103497    -0.75700
C1652       C  0.68677801  0.10927613  0.05679462     0.83600
O1653       O  0.71797482  0.21633249  0.14250277    -0.78600
O1654       O  0.73360758  0.19964910  0.98411123    -0.80100
O1655       O  0.61547595  0.15465537  0.98969834    -0.79900
O1656       O  0.61262206  0.16969830  0.09907436    -0.78500
Zn1657     Zn  0.66571789  0.14665300  0.10388540     1.55700
O1658       O  0.65327310  0.15546888  0.94774267    -0.79900
Cd1659     Cd  0.64031373  0.18193246  0.04329328     1.59700
Cd1660     Cd  0.70923610  0.21622669  0.07653122     1.59600
O1661       O  0.65450482  0.22845481  0.03007587    -0.79900
O1662       O  0.67581657  0.17575932  0.05533713    -1.90400
Cd1663     Cd  0.68816843  0.16231904  0.99942626     1.59900
O1664       O  0.70204456  0.25192526  0.06026800    -0.79800
O1665       O  0.69806792  0.12684553  0.02213354    -0.78500
C1666       C  0.71376859  0.19413761  0.16819339     0.84100
C1667       C  0.60872818  0.14981742  0.12903419     0.83700
O1668       O  0.66392135  0.10807452  0.07817059    -0.77400
C1669       C  0.62609470  0.15320720  0.95136154     0.84500
O1670       O  0.69624517  0.16555947  0.15714896    -0.77500
C1671       C  0.67980370  0.25303827  0.04090374     0.84700
C1672       C  0.75510524  0.22105574  0.00862740     0.85000
O1673       O  0.74987560  0.22752919  0.04748782    -0.80000
N1674       N  0.93228927  0.30348973  0.41280303    -0.02400
C1675       C  0.92277101  0.29682999  0.36904096     0.00200
C1676       C  0.93815134  0.28367835  0.34767292    -0.22700
C1677       C  0.95835167  0.28296103  0.37787913    -0.22900
C1678       C  0.95568040  0.29641780  0.41692650     0.00100
H1679       H  0.93719691  0.27826489  0.31226685     0.13800
H1680       H  0.97620526  0.27718527  0.37016904     0.13900
O1681       O  0.92552974  0.32635237  0.30607154    -0.77500
C1682       C  0.90946517  0.31170139  0.15986180     0.83600
O1683       O  0.93895772  0.42323916  0.25024118    -0.78600
O1684       O  0.85012653  0.35233696  0.15696038    -0.80100
O1685       O  0.81720550  0.28362930  0.28781571    -0.79900
O1686       O  0.88264239  0.30819918  0.34812232    -0.78500
Zn1687     Zn  0.92456477  0.34948180  0.25028183     1.55700
O1688       O  0.81718852  0.28363745  0.21277166    -0.79900
Cd1689     Cd  0.85909239  0.32292518  0.30576801     1.59700
Cd1690     Cd  0.89285980  0.38910674  0.25025955     1.59600
O1691       O  0.85014347  0.35234037  0.34357511    -0.79900
O1692       O  0.88410883  0.34553580  0.25027459    -1.90400
Cd1693     Cd  0.85907443  0.32292346  0.19479270     1.59900
O1694       O  0.87454203  0.39727257  0.30560278    -0.79800
O1695       O  0.88261656  0.30817827  0.15246034    -0.78500
C1696       C  0.96391610  0.42198859  0.25024693     0.84100
C1697       C  0.90949051  0.31172215  0.34072330     0.83700
O1698       O  0.92551042  0.32633842  0.19450656    -0.77400
C1699       C  0.80445506  0.27143678  0.25029553     0.84500
O1700       O  0.96282835  0.39556334  0.25026261    -0.77500
C1701       C  0.85881140  0.38112719  0.33897560     0.84700
C1702       C  0.85878896  0.38112333  0.16155674     0.85000
O1703       O  0.87451900  0.39726966  0.19493121    -0.80000
N1704       N  0.93226135  0.30347553  0.08778562    -0.02400
C1705       C  0.92274681  0.29681236  0.13154632     0.00200
C1706       C  0.93813955  0.28367194  0.15291175    -0.22700
C1707       C  0.95834591  0.28296788  0.12270411    -0.22900
C1708       C  0.95566063  0.29641745  0.08365818     0.00100
H1709       H  0.93719139  0.27826008  0.18831699     0.13800
H1710       H  0.97620165  0.27720088  0.13040736     0.13900
C1711       C  0.74437052  0.99317780  0.78971278     0.81300
N1712       N  0.77040187  0.99049809  0.78939538    -0.77000
C1713       C  0.78324614  0.98866782  0.75024694     0.83700
N1714       N  0.77040464  0.99051291  0.71110543    -0.77000
C1715       C  0.74437520  0.99319475  0.71079747     0.83800
N1716       N  0.73129620  0.99466569  0.75025698    -0.78700
C1717       C  0.79785809  0.96703935  0.28971644     0.81300
N1718       N  0.77182971  0.96972441  0.28940543    -0.77000
C1719       C  0.75898790  0.97156657  0.25026050     0.83700
N1720       N  0.77182931  0.96972922  0.21111494    -0.77000
C1721       C  0.79785633  0.96704320  0.21080014     0.83800
N1722       N  0.81093200  0.96555917  0.25025693    -0.78700
C1723       C  0.73063848  0.70323145  0.21083834     0.81300
N1724       N  0.75928993  0.72944224  0.21115649    -0.77000
C1725       C  0.77395610  0.74237785  0.25029726     0.83700
N1726       N  0.75930294  0.72942562  0.28943850    -0.77000
C1727       C  0.73065027  0.70321465  0.28975425     0.83800
N1728       N  0.71611862  0.69005436  0.25029543    -0.78700
C1729       C  0.81154195  0.75695737  0.78975304     0.81300
N1730       N  0.82607144  0.77011939  0.75029566    -0.77000
C1731       C  0.81155000  0.75694556  0.71083717     0.83700
N1732       N  0.78289755  0.73073573  0.71115221    -0.77000
C1733       C  0.76823286  0.71779863  0.75029261     0.83800
N1734       N  0.78288879  0.73074750  0.78943515    -0.78700
C1735       C  0.50608285  0.68985213  0.78967273     0.81300
N1736       N  0.50792711  0.71821243  0.78938413    -0.77000
C1737       C  0.50936385  0.73265465  0.75023261     0.83700
N1738       N  0.50793850  0.71821815  0.71107736    -0.77000
C1739       C  0.50609373  0.68985610  0.71078773     0.83800
N1740       N  0.50505465  0.67548424  0.75023056    -0.78700
C1741       C  0.53609872  0.77030705  0.21080978     0.81300
N1742       N  0.53425672  0.74194640  0.21110261    -0.77000
C1743       C  0.53283740  0.72751389  0.25025901     0.83700
N1744       N  0.53427691  0.74195942  0.28940992    -0.77000
C1745       C  0.53611809  0.77031901  0.28969552     0.83800
N1746       N  0.53714028  0.78468179  0.25025129    -0.78700
C1747       C  0.54942030  0.98163262  0.25024022     0.81300
N1748       N  0.54829501  0.50864160  0.25024000    -0.77000
C1749       C  0.52020481  0.50766237  0.25023767     0.83700
N1750       N  0.99333222  0.97953737  0.25023735    -0.77000
C1751       C  0.99398832  0.95230714  0.25023847     0.83800
N1752       N  0.52210957  0.95356774  0.25024050    -0.78700
C1753       C  0.99278545  0.97854083  0.75027989     0.81300
N1754       N  0.99391246  0.95152946  0.75027921    -0.77000
C1755       C  0.52200283  0.95250827  0.75028069     0.83700
N1756       N  0.54887312  0.98063496  0.75028024    -0.77000
C1757       C  0.54820928  0.50785904  0.75027912     0.83800
N1758       N  0.52008798  0.50659787  0.75027892    -0.78700
N1759       N  0.93381877  0.56878569  0.08782305    -0.02400
C1760       C  0.93639787  0.57987783  0.13054931     0.00200
C1761       C  0.90777579  0.56500762  0.15183612    -0.22700
C1762       C  0.88712544  0.54335011  0.12260387    -0.22900
C1763       C  0.90341803  0.54520849  0.08406700     0.00100
H1764       H  0.90314524  0.56698308  0.18686395     0.13800
H1765       H  0.86346645  0.52563871  0.13056895     0.13900
O1766       O  0.96424125  0.60877796  0.19400213    -0.77500
C1767       C  0.96452802  0.59402708  0.34156808     0.83600
O1768       O  0.55663665  0.69627080  0.25027762    -0.78600
O1769       O  0.56058974  0.61483352  0.34107143    -0.80100
O1770       O  0.51857357  0.54938883  0.21279500    -0.79900
O1771       O  0.48507393  0.58602580  0.15315670    -0.78500
Zn1772     Zn  0.49026583  0.62676621  0.25025758     1.55700
O1773       O  0.51856419  0.54937479  0.28770621    -0.79900
Cd1774     Cd  0.52089020  0.59178449  0.19596932     1.59700
Cd1775     Cd  0.56360690  0.65812964  0.25028824     1.59600
O1776       O  0.56059028  0.61486156  0.15947128    -0.79900
O1777       O  0.52361961  0.61720567  0.25026857    -1.90400
Cd1778     Cd  0.52089029  0.59177097  0.30455320     1.59900
O1779       O  0.58914249  0.66090682  0.19377700    -0.79800
O1780       O  0.48507106  0.58601104  0.34734543    -0.78500
C1781       C  0.53141851  0.69726526  0.25026607     0.84100
C1782       C  0.96453447  0.59404738  0.15892668     0.83700
O1783       O  0.96423323  0.60875949  0.30649583    -0.77400
C1784       C  0.51885300  0.53694141  0.25024643     0.84500
O1785       O  0.50482038  0.67263330  0.25026278    -0.77500
C1786       C  0.58474990  0.64162365  0.16238234     0.84700
C1787       C  0.58474353  0.64160252  0.33818885     0.85000
O1788       O  0.58913065  0.66089843  0.30681596    -0.80000
N1789       N  0.93382354  0.56877238  0.41266978    -0.02400
C1790       C  0.93639325  0.57985067  0.36993893     0.00200
C1791       C  0.90776878  0.56497065  0.34865784    -0.22700
C1792       C  0.88712513  0.54332241  0.37790361    -0.22900
C1793       C  0.90342546  0.54519391  0.41643949     0.00100
H1794       H  0.90313198  0.56693678  0.31362742     0.13800
H1795       H  0.86346240  0.52560638  0.36994952     0.13900
N1796       N  0.60840728  0.89140538  0.58786423    -0.02400
C1797       C  0.60582526  0.88032459  0.63059801     0.00200
C1798       C  0.63444233  0.89521146  0.65189984    -0.22700
C1799       C  0.65509253  0.91686703  0.62266782    -0.22900
C1800       C  0.63880471  0.91499157  0.58411624     0.00100
H1801       H  0.63906808  0.89324549  0.68693362     0.13800
H1802       H  0.67874755  0.93458688  0.63063898     0.13900
O1803       O  0.57797629  0.85140527  0.69402984    -0.77500
C1804       C  0.57768999  0.86613350  0.84159553     0.83600
O1805       O  0.98557214  0.76390292  0.75025654    -0.78600
O1806       O  0.98163695  0.84533949  0.84109124    -0.80100
O1807       O  0.02362374  0.91077974  0.71282639    -0.79900
O1808       O  0.55714123  0.87415916  0.65318872    -0.78500
Zn1809     Zn  0.55194876  0.83340315  0.75027529     1.55700
O1810       O  0.02365989  0.91080002  0.78773741    -0.79900
Cd1811     Cd  0.02131775  0.86839006  0.69598946     1.59700
Cd1812     Cd  0.97860967  0.80204724  0.75029717     1.59600
O1813       O  0.98161949  0.84531240  0.65948162    -0.79900
O1814       O  0.01859795  0.84296862  0.75028371    -1.90400
Cd1815     Cd  0.02133453  0.86840221  0.80457357     1.59900
O1816       O  0.95306254  0.79927589  0.69380214    -0.79800
O1817       O  0.55715305  0.87415810  0.84736607    -0.78500
C1818       C  0.01078809  0.76290487  0.75024252     0.84100
C1819       C  0.57768363  0.86614111  0.65896015     0.83700
O1820       O  0.57798085  0.85139714  0.80652486    -0.77400
C1821       C  0.02335577  0.92322947  0.75028132     0.84500
O1822       O  0.53738819  0.78753445  0.75025316    -0.77500
C1823       C  0.95745510  0.81855482  0.66240244     0.84700
C1824       C  0.95748217  0.81857116  0.83820534     0.85000
O1825       O  0.95309345  0.79927553  0.80683086    -0.80000
N1826       N  0.60839214  0.89139592  0.91269741    -0.02400
C1827       C  0.60582304  0.88030419  0.86997442     0.00200
C1828       C  0.63444917  0.89517409  0.84869977    -0.22700
C1829       C  0.65509313  0.91683142  0.87793871    -0.22900
C1830       C  0.63879157  0.91497296  0.91646670     0.00100
H1831       H  0.63908661  0.89319913  0.81367176     0.13800
H1832       H  0.67875348  0.93454722  0.86998025     0.13900
N1833       N  0.84391819  0.89207584  0.58744560    -0.02400
C1834       C  0.83690954  0.86166048  0.58279335     0.00200
C1835       C  0.82336146  0.84518678  0.62158752    -0.22700
C1836       C  0.82402183  0.86588914  0.65218670    -0.22900
C1837       C  0.83720732  0.89460997  0.63126470     0.00100
H1838       H  0.81753392  0.82152455  0.62882320     0.13800
H1839       H  0.81854600  0.86114791  0.68753205     0.13900
O1840       O  0.86669964  0.92106538  0.80601752    -0.77500
C1841       C  0.85215299  0.92264212  0.65986188     0.83600
O1842       O  0.96387123  0.50454590  0.75027149    -0.78600
O1843       O  0.89328463  0.52278852  0.65712730    -0.80100
O1844       O  0.82447540  0.48678674  0.78774333    -0.79900
O1845       O  0.84889753  0.94613204  0.84795390    -0.78500
Zn1846     Zn  0.88997558  0.94514210  0.75024285     1.55700
O1847       O  0.82447052  0.48678391  0.71272837    -0.79900
Cd1848     Cd  0.86377555  0.48434565  0.80557826     1.59700
Cd1849     Cd  0.92994588  0.51663884  0.75023823     1.59600
O1850       O  0.89327994  0.52279997  0.84332586    -0.79900
O1851       O  0.88632406  0.48180320  0.75023390    -1.90400
Cd1852     Cd  0.86377243  0.48433869  0.69488529     1.59900
O1853       O  0.93827265  0.54323694  0.80555195    -0.79800
O1854       O  0.84889227  0.94611510  0.65252912    -0.78500
C1855       C  0.96251635  0.97829740  0.75027048     0.84100
C1856       C  0.85215502  0.92265695  0.84062621     0.83700
O1857       O  0.86670070  0.92105476  0.69447114    -0.77400
C1858       C  0.81226230  0.48726550  0.75023785     0.84500
O1859       O  0.93604216  0.95294177  0.75025533    -0.77500
C1860       C  0.92210939  0.54289719  0.83883003     0.84700
C1861       C  0.92211907  0.54287517  0.66161571     0.85000
O1862       O  0.93828174  0.54321070  0.69489353    -0.80000
N1863       N  0.84391850  0.89209531  0.91304933    -0.02400
C1864       C  0.83692497  0.86168386  0.91769871     0.00200
C1865       C  0.82339028  0.84521070  0.87890080    -0.22700
C1866       C  0.82403881  0.86590577  0.84830238    -0.22900
C1867       C  0.83720970  0.89462657  0.86922690     0.00100
H1868       H  0.81756802  0.82153398  0.87166184     0.13800
H1869       H  0.81856938  0.86116569  0.81295424     0.13900
N1870       N  0.69829777  0.56811545  0.08745028    -0.02400
C1871       C  0.70529862  0.59852869  0.08280215     0.00200
C1872       C  0.71883863  0.61500104  0.12160061    -0.22700
C1873       C  0.71818336  0.59430097  0.15219754    -0.22900
C1874       C  0.70500659  0.56558114  0.13127114     0.00100
H1875       H  0.72466061  0.63866703  0.12883998     0.13800
H1876       H  0.72365512  0.59904100  0.18754686     0.13900
O1877       O  0.67551327  0.53913604  0.30601610    -0.77500
C1878       C  0.69006171  0.53754799  0.15986565     0.83600
O1879       O  0.57833106  0.95562423  0.25026224    -0.78600
O1880       O  0.64892468  0.93739230  0.15715331    -0.80100
O1881       O  0.71774771  0.97342667  0.28776529    -0.79900
O1882       O  0.69331676  0.01407877  0.34796679    -0.78500
Zn1883     Zn  0.65223512  0.01504968  0.25024450     1.55700
O1884       O  0.71774531  0.97342220  0.21274970    -0.79900
Cd1885     Cd  0.67843783  0.97585213  0.30560129     1.59700
Cd1886     Cd  0.61226442  0.94354229  0.25026314     1.59600
O1887       O  0.64893818  0.93739913  0.34335897    -0.79900
O1888       O  0.65588426  0.97838282  0.25025126    -1.90400
Cd1889     Cd  0.67843517  0.97584859  0.19490237     1.59900
O1890       O  0.60394144  0.91695939  0.30559096    -0.79800
O1891       O  0.69331745  0.01407565  0.15253257    -0.78500
C1892       C  0.57969124  0.98188001  0.25024648     0.84100
C1893       C  0.69005874  0.53755070  0.34062968     0.83700
O1894       O  0.67551425  0.53913468  0.19447399    -0.77400
C1895       C  0.72996039  0.97295059  0.25025854     0.84500
O1896       O  0.60616372  0.00723811  0.25023617    -0.77500
C1897       C  0.62010753  0.91730207  0.33886840     0.84700
C1898       C  0.62009352  0.91729857  0.16165164     0.85000
O1899       O  0.60393431  0.91695939  0.19493446    -0.80000
N1900       N  0.69830660  0.56810795  0.41306384    -0.02400
C1901       C  0.70530326  0.59851925  0.41773209     0.00200
C1902       C  0.71882766  0.61499751  0.37893506    -0.22700
C1903       C  0.71816036  0.59430439  0.34831635    -0.22900
C1904       C  0.70499528  0.56558121  0.36923062     0.00100
H1905       H  0.72465264  0.63867792  0.37171278     0.13800
H1906       H  0.72361981  0.59904955  0.31296478     0.13900
C1907       C  0.85851970  0.67629991  0.53295928     0.81300
N1908       N  0.82936073  0.65093014  0.53333491    -0.77000
C1909       C  0.82541565  0.62180657  0.53294056     0.83700
N1910       N  0.85074367  0.61802259  0.53308926    -0.77000
C1911       C  0.87988224  0.64322377  0.53267909     0.83800
N1912       N  0.88372137  0.67238769  0.53310003    -0.78700
O1913       O  0.53524852  0.62287835  0.57950687    -0.77500
C1914       C  0.49869315  0.67302885  0.66819256     0.83600
O1915       O  0.92194428  0.56978917  0.59673722    -0.78600
O1916       O  0.93044466  0.66171210  0.55904822    -0.80100
O1917       O  0.51380236  0.69245531  0.48429762    -0.79900
O1918       O  0.55093639  0.65682277  0.52315259    -0.78500
Zn1919     Zn  0.99841309  0.62499410  0.60448091     1.55700
O1920       O  0.50293276  0.70915880  0.54781142    -0.79900
Cd1921     Cd  0.50566723  0.64706335  0.50007120     1.59700
Cd1922     Cd  0.93784168  0.59914821  0.54301005     1.59600
O1923       O  0.97809596  0.61219804  0.44813392    -0.79900
O1924       O  0.97958213  0.63473551  0.55563549    -1.90400
Cd1925     Cd  0.97297308  0.66850248  0.57624731     1.59900
O1926       O  0.94035923  0.57464107  0.48950514    -0.79800
O1927       O  0.98069823  0.67700096  0.64225294    -0.78500
C1928       C  0.93779019  0.56686593  0.62788859     0.84100
C1929       C  0.55707848  0.64546933  0.55784930     0.83700
O1930       O  0.51000789  0.65571816  0.65743367    -0.77400
C1931       C  0.51423638  0.71414123  0.50871807     0.84500
O1932       O  0.96716309  0.58469746  0.63149404    -0.77500
C1933       C  0.95301819  0.58508450  0.45148905     0.84700
C1934       C  0.90679743  0.63927405  0.54046229     0.85000
O1935       O  0.90566135  0.61365528  0.53050188    -0.80000
O1936       O  0.53220203  0.80444201  0.34307109    -0.77500
C1937       C  0.98515774  0.81471796  0.44266293     0.83600
O1938       O  0.62029400  0.89040691  0.40376077    -0.78600
O1939       O  0.56414885  0.84798123  0.55236489    -0.80100
O1940       O  0.53931319  0.75102727  0.45262559    -0.79900
O1941       O  0.56156314  0.78320821  0.35819160    -0.78500
Zn1942     Zn  0.54382114  0.83517629  0.39601000     1.55700
O1943       O  0.52845276  0.76772842  0.51615209    -0.79900
Cd1944     Cd  0.56928086  0.79168793  0.42420305     1.59700
Cd1945     Cd  0.60441401  0.86103529  0.45747369     1.59600
O1946       O  0.61180384  0.79846226  0.44139650    -0.79900
O1947       O  0.56267030  0.82545066  0.44484676    -1.90400
Cd1948     Cd  0.53658691  0.81312329  0.50041030     1.59900
O1949       O  0.63659450  0.84652230  0.46993044    -0.79800
O1950       O  0.99131279  0.80337007  0.47735430    -0.78500
C1951       C  0.60444437  0.89331045  0.37259558     0.84100
C1952       C  0.54353673  0.78715434  0.33228315     0.83700
O1953       O  0.50698248  0.83729506  0.42097533    -0.77400
C1954       C  0.52801397  0.74604347  0.49172264     0.84500
O1955       O  0.57507469  0.87546153  0.36897853    -0.77500
C1956       C  0.63545381  0.82090081  0.45997532     0.84700
C1957       C  0.58923683  0.87508838  0.54902683     0.85000
O1958       O  0.60192443  0.88552506  0.51102322    -0.80000
O1959       O  0.67992449  0.53401952  0.63136459    -0.77500
C1960       C  0.65014166  0.94434649  0.55806629     0.83600
O1961       O  0.75784155  0.51940213  0.64273951    -0.78600
O1962       O  0.74040539  0.98680646  0.48463333    -0.80100
O1963       O  0.69586272  0.56008256  0.48969681    -0.79900
O1964       O  0.71038221  0.57918736  0.59655699    -0.78500
Zn1965     Zn  0.68858221  0.50269127  0.60426063     1.55700
O1966       O  0.69692561  0.52332514  0.44774831    -0.79900
Cd1967     Cd  0.72347977  0.56311083  0.54271529     1.59700
Cd1968     Cd  0.75787134  0.52848747  0.57680359     1.59600
O1969       O  0.77004142  0.59542894  0.52965952    -0.79900
O1970       O  0.71743696  0.52149568  0.55561866    -1.90400
Cd1971     Cd  0.70348525  0.99539298  0.50002727     1.59900
O1972       O  0.79346231  0.57155593  0.56063600    -0.79800
O1973       O  0.66764317  0.95027530  0.52339419    -0.78500
C1974       C  0.73553838  0.00130183  0.66824682     0.84100
C1975       C  0.69161841  0.56338931  0.62776557     0.83700
O1976       O  0.64942767  0.96629494  0.57928721    -0.77400
C1977       C  0.69461072  0.54819661  0.45137239     0.84500
O1978       O  0.70702562  0.99044904  0.65714657    -0.77500
C1979       C  0.79458833  0.59481053  0.54089043     0.84700
C1980       C  0.76216139  0.98709680  0.50868110     0.85000
O1981       O  0.76918604  0.99931104  0.54722131    -0.80000
O1982       O  0.89280492  0.99389615  0.42123659    -0.77500
C1983       C  0.85060443  0.89680800  0.37273642     0.83600
O1984       O  0.78438699  0.94082272  0.35777287    -0.78600
O1985       O  0.77220348  0.86475677  0.47086392    -0.80100
O1986       O  0.84530258  0.93685367  0.55274997    -0.79900
O1987       O  0.87459602  0.50990460  0.47715200    -0.78500
Zn1988     Zn  0.85364556  0.95750744  0.39623803     1.55700
O1989       O  0.84637757  0.90010107  0.51080822    -0.79900
Cd1990     Cd  0.83874625  0.96478897  0.50048088     1.59700
Cd1991     Cd  0.78435379  0.93168811  0.42369408     1.59600
O1992       O  0.80182883  0.97337720  0.51588171    -0.79900
O1993       O  0.82479302  0.93869288  0.44487939    -1.90400
Cd1994     Cd  0.81875785  0.89708166  0.45779602     1.59900
O1995       O  0.77301449  0.96083140  0.45332412    -0.79800
O1996       O  0.83184736  0.88101167  0.40395119    -0.78500
C1997       C  0.80669332  0.95892650  0.33226718     0.84100
C1998       C  0.89209609  0.51583764  0.44247859     0.83700
O1999       O  0.86229641  0.92617713  0.36912888    -0.77400
C2000       C  0.84762186  0.91198499  0.54913150     0.84500
O2001       O  0.83520590  0.96976775  0.34336141    -0.77500
C2002       C  0.78005512  0.97306440  0.49185113     0.84700
C2003       C  0.74765568  0.86536003  0.45959445     0.85000
O2004       O  0.74877822  0.88860330  0.43981795    -0.80000
C2005       C  0.68372627  0.78387147  0.46756599     0.81300
N2006       N  0.65852489  0.78778429  0.46738535    -0.77000
C2007       C  0.66236531  0.81694855  0.46777009     0.83700
N2008       N  0.69150325  0.84214802  0.46736169    -0.77000
C2009       C  0.71683045  0.83836423  0.46754513     0.83800
N2010       N  0.71288630  0.80924070  0.46718951    -0.78700
O2011       O  0.91716718  0.82360096  0.63107067    -0.77500
C2012       C  0.85542890  0.85090876  0.55679706     0.83600
O2013       O  0.82423600  0.74384340  0.64251805    -0.78600
O2014       O  0.80860545  0.76052987  0.48412136    -0.80100
O2015       O  0.92673184  0.80551736  0.48970832    -0.79900
O2016       O  0.92958850  0.79049007  0.59908532    -0.78500
Zn2017     Zn  0.87647800  0.81352440  0.60390132     1.55700
O2018       O  0.88893885  0.80471411  0.44775150    -0.79900
Cd2019     Cd  0.90189306  0.77824884  0.54330655     1.59700
Cd2020     Cd  0.83296940  0.74395855  0.57654298     1.59600
O2021       O  0.88769724  0.73172592  0.53009101    -0.79900
O2022       O  0.86639131  0.78442393  0.55534938    -1.90400
Cd2023     Cd  0.85404257  0.79786309  0.49943518     1.59900
O2024       O  0.84014920  0.70825553  0.56025214    -0.79800
O2025       O  0.84414201  0.83333797  0.52213503    -0.78500
C2026       C  0.82842459  0.76603768  0.66819742     0.84100
C2027       C  0.93347284  0.81036085  0.62905727     0.83700
O2028       O  0.87828008  0.85210673  0.57818691    -0.77400
C2029       C  0.91611660  0.80697361  0.45137171     0.84500
O2030       O  0.84593634  0.79461609  0.65714660    -0.77500
C2031       C  0.86239321  0.70714276  0.54089879     0.84700
C2032       C  0.78710466  0.73913537  0.50864585     0.85000
O2033       O  0.79233018  0.73267449  0.54751684    -0.80000
O2034       O  0.66391742  0.60804388  0.42241245    -0.77500
C2035       C  0.60872402  0.64978989  0.37154032     0.83600
O2036       O  0.71802374  0.71630166  0.35812703    -0.78600
O2037       O  0.65454151  0.72844759  0.47046680    -0.80100
O2038       O  0.65326667  0.65543626  0.55283923    -0.79900
O2039       O  0.69807544  0.62681429  0.47843856    -0.78500
Zn2040     Zn  0.66571243  0.64661961  0.39669120     1.55700
O2041       O  0.61549364  0.65466056  0.51086389    -0.79900
Cd2042     Cd  0.68816759  0.66227941  0.50117154     1.59700
Cd2043     Cd  0.70926724  0.71618783  0.42408690     1.59600
O2044       O  0.73360223  0.69960455  0.51653398    -0.79900
O2045       O  0.67582596  0.67572646  0.44524999    -1.90400
Cd2046     Cd  0.64033511  0.68192168  0.45726559     1.59900
O2047       O  0.74989033  0.72746400  0.45314595    -0.79800
O2048       O  0.61263877  0.66968887  0.40148248    -0.78500
C2049       C  0.71378656  0.69411165  0.33240380     0.84100
C2050       C  0.68678396  0.60925154  0.44376930     0.83700
O2051       O  0.62500505  0.63652248  0.36955461    -0.77400
C2052       C  0.62609904  0.65319764  0.54920547     0.84500
O2053       O  0.69623283  0.66553146  0.34341521    -0.77500
C2054       C  0.75510834  0.72100067  0.49201874     0.84700
C2055       C  0.67985180  0.75302508  0.45966346     0.85000
O2056       O  0.70209876  0.75190248  0.44033847    -0.80000
N2057       N  0.60992991  0.65669705  0.58776070    -0.02400
C2058       C  0.61942389  0.66333933  0.63153387     0.00200
C2059       C  0.60402935  0.67647920  0.65289285    -0.22700
C2060       C  0.58384492  0.67720763  0.62266754    -0.22900
C2061       C  0.58653901  0.66376632  0.58361903     0.00100
H2062       H  0.60496574  0.68188108  0.68830341     0.13800
H2063       H  0.56599001  0.68298103  0.63035909     0.13900
O2064       O  0.61667417  0.63382360  0.80607001    -0.77500
C2065       C  0.63270951  0.64845430  0.65985228     0.83600
O2066       O  0.60324208  0.53692796  0.75024790    -0.78600
O2067       O  0.69207108  0.60785103  0.65694910    -0.80100
O2068       O  0.72499357  0.67653717  0.78780950    -0.79900
O2069       O  0.65956451  0.65197160  0.84811841    -0.78500
Zn2070     Zn  0.61762716  0.61068413  0.75028450     1.55700
O2071       O  0.72499421  0.67654313  0.71276571    -0.79900
Cd2072     Cd  0.68310815  0.63724111  0.80576223     1.59700
Cd2073     Cd  0.64933874  0.57106340  0.75024612     1.59600
O2074       O  0.69205824  0.60782375  0.84356222    -0.79900
O2075       O  0.65808427  0.61463254  0.75027111    -1.90400
Cd2076     Cd  0.68311176  0.63725147  0.69478911     1.59900
O2077       O  0.66767084  0.56289543  0.80557686    -0.79800
O2078       O  0.65956101  0.65198512  0.65245470    -0.78500
C2079       C  0.57828262  0.53817649  0.75027241     0.84100
C2080       C  0.63271847  0.64845476  0.84071950     0.83700
O2081       O  0.61666742  0.63381718  0.69449852    -0.77400
C2082       C  0.73773543  0.68873730  0.75028969     0.84500
O2083       O  0.57936773  0.56460054  0.75029081    -0.77500
C2084       C  0.68339797  0.57903921  0.83895488     0.84700
C2085       C  0.68340539  0.57906353  0.66153362     0.85000
O2086       O  0.66767131  0.56291174  0.69490054    -0.80000
N2087       N  0.60992595  0.65669535  0.91279408    -0.02400
C2088       C  0.61944690  0.66335576  0.86903463     0.00200
C2089       C  0.60407215  0.67651320  0.84766560    -0.22700
C2090       C  0.58387211  0.67723292  0.87786779    -0.22900
C2091       C  0.58653920  0.66377308  0.91691494     0.00100
H2092       H  0.60502826  0.68192776  0.81225656     0.13800
H2093       H  0.56602010  0.68301102  0.87015401     0.13900
C2094       C  0.85849984  0.67631019  0.96754826     0.81300
N2095       N  0.82934016  0.65094012  0.96716797    -0.77000
C2096       C  0.82539628  0.62181652  0.96753104     0.83700
N2097       N  0.85072395  0.61803357  0.96735714    -0.77000
C2098       C  0.87986147  0.64323409  0.96776774     0.83800
N2099       N  0.88370141  0.67239811  0.96737735    -0.78700
O2100       O  0.51001219  0.65574198  0.84305274    -0.77500
C2101       C  0.55706104  0.64547559  0.94264590     0.83600
O2102       O  0.92192557  0.56979430  0.90371997    -0.78600
O2103       O  0.97807439  0.61221071  0.05233181    -0.80100
O2104       O  0.50290981  0.70916742  0.95261014    -0.79900
O2105       O  0.98064942  0.67697394  0.85817422    -0.78500
Zn2106     Zn  0.99839768  0.62501317  0.89598940     1.55700
O2107       O  0.51376173  0.69246026  0.01613766    -0.79900
Cd2108     Cd  0.97294273  0.66850402  0.92418774     1.59700
Cd2109     Cd  0.93781182  0.59915269  0.95744729     1.59600
O2110       O  0.93041940  0.66172135  0.94138941    -0.79900
O2111       O  0.97955173  0.63474074  0.94482292    -1.90400
Cd2112     Cd  0.50563390  0.64706974  0.00038601     1.59900
O2113       O  0.90563425  0.61366308  0.96992842    -0.79800
O2114       O  0.55090661  0.65682524  0.97733492    -0.78500
C2115       C  0.93777453  0.56688793  0.87255809     0.84100
C2116       C  0.49867227  0.67302469  0.83226361     0.83700
O2117       O  0.53523675  0.62289716  0.92095771    -0.77400
C2118       C  0.51420196  0.71414720  0.99171241     0.84500
O2119       O  0.96714548  0.58472982  0.86895062    -0.77500
C2120       C  0.90677281  0.63928328  0.95997292     0.84700
C2121       C  0.95299331  0.58509881  0.04898917     0.85000
O2122       O  0.94031514  0.57465579  0.01098067    -0.80000
O2123       O  0.50695657  0.83730264  0.07955481    -0.77500
C2124       C  0.54349894  0.78713314  0.16821384     0.83600
O2125       O  0.62026299  0.89039100  0.09676442    -0.78600
O2126       O  0.61176344  0.79847453  0.05908960    -0.80100
O2127       O  0.52839551  0.76773172  0.98431405    -0.79900
O2128       O  0.99126492  0.80336586  0.02318807    -0.78500
Zn2129     Zn  0.54379275  0.83518164  0.10451605     1.55700
O2130       O  0.53928425  0.75102517  0.04780943    -0.79900
Cd2131     Cd  0.53653298  0.81312239  0.00010085     1.59700
Cd2132     Cd  0.60436118  0.86103494  0.04303562     1.59600
O2133       O  0.56411177  0.84798246  0.94816276    -0.79900
O2134       O  0.56262127  0.82544475  0.05566434    -1.90400
Cd2135     Cd  0.56923076  0.79167580  0.07627119     1.59900
O2136       O  0.60184345  0.88554636  0.98953403    -0.79800
O2137       O  0.56148773  0.78315552  0.14227036    -0.78500
C2138       C  0.60442034  0.89330773  0.12792516     0.84100
C2139       C  0.98512480  0.81471621  0.05789039     0.83700
O2140       O  0.53219422  0.80445356  0.15746182    -0.77400
C2141       C  0.52797335  0.74604596  0.00871993     0.84500
O2142       O  0.57504852  0.87547280  0.13153657    -0.77500
C2143       C  0.58919063  0.87509572  0.95151571     0.84700
C2144       C  0.63540715  0.82091044  0.04049654     0.85000
O2145       O  0.63654005  0.84652652  0.03052737    -0.80000
O2146       O  0.64941542  0.96627893  0.92123195    -0.77500
C2147       C  0.69160826  0.56336242  0.87271748     0.83600
O2148       O  0.75782915  0.51938195  0.85777189    -0.78600
O2149       O  0.77002359  0.59543442  0.97082527    -0.80100
O2150       O  0.69691266  0.52333720  0.05275147    -0.79900
O2151       O  0.66762476  0.95028132  0.97716301    -0.78500
Zn2152     Zn  0.68856891  0.50266570  0.89624112     1.55700
O2153       O  0.69587057  0.56010883  0.01081082    -0.79900
Cd2154     Cd  0.70347307  0.99540387  0.00048817     1.59700
Cd2155     Cd  0.75785552  0.52848640  0.92370172     1.59600
O2156       O  0.74039233  0.98681950  0.01588874    -0.79900
O2157       O  0.71742002  0.52148916  0.94488424    -1.90400
Cd2158     Cd  0.72346614  0.56310642  0.95778203     1.59900
O2159       O  0.76917852  0.99932692  0.95330838    -0.79800
O2160       O  0.71036435  0.57916240  0.90393324    -0.78500
C2161       C  0.73553089  0.00127606  0.83226975     0.84100
C2162       C  0.65012471  0.94433885  0.94248556     0.83700
O2163       O  0.67991783  0.53399291  0.86911453    -0.77400
C2164       C  0.69460648  0.54821334  0.04913190     0.84500
O2165       O  0.70701713  0.99041358  0.84337187    -0.77500
C2166       C  0.76215107  0.98711256  0.99184710     0.84700
C2167       C  0.79456958  0.59481875  0.95958768     0.85000
O2168       O  0.79344301  0.57156216  0.93984722    -0.80000
O2169       O  0.86226619  0.92617216  0.13140006    -0.77500
C2170       C  0.89207601  0.51584446  0.05803813     0.83600
O2171       O  0.78437266  0.94081239  0.14275508    -0.78600
O2172       O  0.80180365  0.97337613  0.98463786    -0.80100
O2173       O  0.84632157  0.90008630  0.98968967    -0.79900
O2174       O  0.83183018  0.88100793  0.09656401    -0.78500
Zn2175     Zn  0.85362476  0.95750882  0.10427270     1.55700
O2176       O  0.84528924  0.93686618  0.94775641    -0.79900
Cd2177     Cd  0.81872407  0.89707627  0.04272387     1.59700
Cd2178     Cd  0.78433352  0.93169781  0.07682466     1.59600
O2179       O  0.77216083  0.86475597  0.02967831    -0.79900
O2180       O  0.82476844  0.93869230  0.05563207    -1.90400
Cd2181     Cd  0.83872320  0.96479162  0.00003337     1.59900
O2182       O  0.74874191  0.88862393  0.06067468    -0.79800
O2183       O  0.87456985  0.50990795  0.02336871    -0.78500
C2184       C  0.80668354  0.95892809  0.16824791     0.84100
C2185       C  0.85058082  0.89680340  0.12778858     0.83700
O2186       O  0.89278533  0.99390362  0.07928684    -0.77400
C2187       C  0.84759574  0.91198992  0.95137170     0.84500
O2188       O  0.83519409  0.96978116  0.15713822    -0.77500
C2189       C  0.74761470  0.86537140  0.04092021     0.84700
C2190       C  0.78004378  0.97308070  0.00867961     0.85000
O2191       O  0.77301534  0.96086394  0.04721704    -0.80000
C2192       C  0.68368190  0.78388256  0.03297244     0.81300
N2193       N  0.65848070  0.78779555  0.03312151    -0.77000
C2194       C  0.66232102  0.81696003  0.03271028     0.83700
N2195       N  0.69145971  0.84216050  0.03312290    -0.77000
C2196       C  0.71678710  0.83837583  0.03296826     0.83800
N2197       N  0.71284135  0.80925195  0.03335114    -0.78700
O2198       O  0.87829810  0.85213733  0.92236157    -0.77500
C2199       C  0.93349922  0.81038581  0.87154952     0.83600
O2200       O  0.82417436  0.74386982  0.85812357    -0.78600
O2201       O  0.88767959  0.73173541  0.97046803    -0.80100
O2202       O  0.88893566  0.80474733  0.05283778    -0.79900
O2203       O  0.84415217  0.83338607  0.97840251    -0.78500
Zn2204     Zn  0.87649874  0.81355199  0.89667036     1.55700
O2205       O  0.92671603  0.80552401  0.01088371    -0.79900
Cd2206     Cd  0.85404598  0.79791369  0.00115135     1.59700
Cd2207     Cd  0.83294909  0.74398794  0.92408011     1.59600
O2208       O  0.80860452  0.76059905  0.01650826    -0.79900
O2209       O  0.86638936  0.78445478  0.94524181    -1.90400
Cd2210     Cd  0.90188420  0.77826441  0.95727897     1.59900
O2211       O  0.79232672  0.73269935  0.95315244    -0.79800
O2212       O  0.92960086  0.79050990  0.90151996    -0.78500
C2213       C  0.82840976  0.76605896  0.83240043     0.84100
C2214       C  0.85544092  0.85094231  0.94372746     0.83700
O2215       O  0.91719828  0.82363073  0.86952650    -0.77400
C2216       C  0.91610295  0.80698344  0.04921881     0.84500
O2217       O  0.84596909  0.79463894  0.84340746    -0.77500
C2218       C  0.78710303  0.73918464  0.99200726     0.84700
C2219       C  0.86237366  0.70715691  0.95964867     0.85000
O2220       O  0.84012862  0.70827842  0.94031406    -0.80000
O2221       O  0.62502312  0.63656353  0.13103377    -0.75700
C2222       C  0.68677943  0.60927483  0.05679336     0.83600
O2223       O  0.71797140  0.71633300  0.14250477    -0.78600
O2224       O  0.73360667  0.69964844  0.98411356    -0.80100
O2225       O  0.61547722  0.65466030  0.98969797    -0.79900
O2226       O  0.61262390  0.66969856  0.09907708    -0.78500
Zn2227     Zn  0.66571904  0.64665226  0.10388499     1.55700
O2228       O  0.65327181  0.65546686  0.94774360    -0.79900
Cd2229     Cd  0.64031544  0.68193334  0.04329586     1.59700
Cd2230     Cd  0.70923796  0.71622500  0.07653156     1.59600
O2231       O  0.65450781  0.72845587  0.03008131    -0.79900
O2232       O  0.67581712  0.67575817  0.05533712    -1.90400
Cd2233     Cd  0.68816801  0.66231749  0.99942643     1.59900
O2234       O  0.70205132  0.75192563  0.06026078    -0.79800
O2235       O  0.69806809  0.62684390  0.02213165    -0.78500
C2236       C  0.71376745  0.69413844  0.16819426     0.84100
C2237       C  0.60872893  0.64981608  0.12903480     0.83700
O2238       O  0.66392389  0.60807380  0.07817172    -0.77400
C2239       C  0.62609425  0.65320742  0.95136196     0.84500
O2240       O  0.69624696  0.66556008  0.15714819    -0.77500
C2241       C  0.67980881  0.75303896  0.04090229     0.84700
C2242       C  0.75510555  0.72105212  0.00863184     0.85000
O2243       O  0.74987775  0.72752216  0.04749547    -0.80000
N2244       N  0.93228845  0.80349094  0.41280439    -0.02400
C2245       C  0.92276980  0.79683093  0.36904228     0.00200
C2246       C  0.93814969  0.78367894  0.34767404    -0.22700
C2247       C  0.95835018  0.78296155  0.37787977    -0.22900
C2248       C  0.95567954  0.79641866  0.41692727     0.00100
H2249       H  0.93719500  0.77826537  0.31226823     0.13800
H2250       H  0.97620344  0.77718574  0.37016909     0.13900
O2251       O  0.92552885  0.82635326  0.30607213    -0.77500
C2252       C  0.90946562  0.81170328  0.15985828     0.83600
O2253       O  0.93895559  0.92324015  0.25024045    -0.78600
O2254       O  0.85012837  0.85233856  0.15695787    -0.80100
O2255       O  0.81720482  0.78363080  0.28781547    -0.79900
O2256       O  0.88264131  0.80819989  0.34812291    -0.78500
Zn2257     Zn  0.92456429  0.84948275  0.25028079     1.55700
O2258       O  0.81718776  0.78363878  0.21277105    -0.79900
Cd2259     Cd  0.85909202  0.82292614  0.30576812     1.59700
Cd2260     Cd  0.89285880  0.88910691  0.25025922     1.59600
O2261       O  0.85014422  0.85234212  0.34357565    -0.79900
O2262       O  0.88410825  0.84553606  0.25027376    -1.90400
Cd2263     Cd  0.85907445  0.82292414  0.19479096     1.59900
O2264       O  0.87454175  0.89727372  0.30560192    -0.79800
O2265       O  0.88261626  0.80817863  0.15245808    -0.78500
C2266       C  0.96391408  0.92199005  0.25024609     0.84100
C2267       C  0.90948953  0.81172311  0.34072414     0.83700
O2268       O  0.92551070  0.82634045  0.19450329    -0.77400
C2269       C  0.80445423  0.77143840  0.25029528     0.84500
O2270       O  0.96282686  0.89556503  0.25026176    -0.77500
C2271       C  0.85881185  0.88112882  0.33897549     0.84700
C2272       C  0.85878998  0.88112457  0.16155553     0.85000
O2273       O  0.87451858  0.89727010  0.19493128    -0.80000
N2274       N  0.93226283  0.80347779  0.08778156    -0.02400
C2275       C  0.92274783  0.79681462  0.13154245     0.00200
C2276       C  0.93814073  0.78367458  0.15290855    -0.22700
C2277       C  0.95834714  0.78297038  0.12270180    -0.22900
C2278       C  0.95566232  0.79641951  0.08365523     0.00100
H2279       H  0.93719230  0.77826292  0.18831505     0.13800
H2280       H  0.97620434  0.77720337  0.13040656     0.13900
loop_ 
_geom_bond_atom_site_label_1 
_geom_bond_atom_site_label_2 
_geom_bond_distance 
_geom_bond_site_symmetry_2 
_ccdc_geom_bond_type 
C1            N2   1.360       .  A
C1            N6   1.361       .  A
C1          C451   1.461       .  S
N2            C3   1.353       .  A
C3            N4   1.352       .  A
C3          C718   1.472       .  S
N4            C5   1.360       .  A
C5            N6   1.361       .  A
C5          C264   1.461       .  S
C7            N8   1.360       .  A
C7           N12   1.361       .  A
C7          C287   1.461       .  S
N8            C9   1.353       .  A
C9           N10   1.352       .  A
C9          C185   1.472       .  S
N10          C11   1.360       .  A
C11          N12   1.361       .  A
C11         C474   1.461       .  S
C13          N14   1.360       .  A
C13          N18   1.361       .  A
C13         C526   1.461       .  S
N14          C15   1.353       .  A
C15          N16   1.353       .  A
C15         C559   1.473       .  S
N16          C17   1.360       .  A
C17          N18   1.361       .  A
C17         C339   1.462       .  S
C19          N20   1.361       .  A
C19          N24   1.360       .  A
C19         C503   1.462       .  S
N20          C21   1.361       .  A
C21          N22   1.360       .  A
C21         C316   1.461       .  S
N22          C23   1.353       .  A
C23          N24   1.353       .  A
C23         C372   1.473       .  S
C25          N26   1.360       .  A
C25          N30   1.361       .  A
C25         C406   1.460   1_455  S
N26          C27   1.351       .  A
C27          N28   1.351       .  A
C27        C1248   1.463       .  S
N28          C29   1.360       .  A
C29          N30   1.361       .  A
C29         C204   1.460   1_455  S
C31          N32   1.360       .  A
C31          N36   1.361       .  A
C31         C414   1.460       .  S
N32          C33   1.351       .  A
C33          N34   1.351       .  A
C33          C71   1.463       .  S
N34          C35   1.360       .  A
C35          N36   1.361       .  A
C35         C242   1.460       .  S
C37          N42   1.369       .  A
C37         N608   1.366       .  A
C37         C182   1.492       .  S
N38          C39   1.367       .  A
N38         C607   1.366   1_545  A
C39        N1750   1.360   1_445  A
C39          C74   1.484       .  S
N40          C41   1.364       .  A
N40        C1749   1.360       .  A
C41        N1182   1.362       .  A
C41         C556   1.493       .  S
N42        C1181   1.362   1_455  A
C43          N44   1.366       .  A
C43        N1758   1.369       .  A
C43         C145   1.492       .  S
N44        C1185   1.367       .  A
C45          N46   1.360       .  A
C45        N1184   1.367   1_455  A
C45        C1251   1.484       .  S
N46         C617   1.364       .  A
C47          N48   1.361       .  A
C47         N616   1.364   1_545  A
C47         C369   1.493       .  S
N48        C1753   1.369   1_445  A
N49          C53   1.370       .  A
N49          C50   1.366       .  A
N49         C411   1.457       .  S
C50          C72   1.472       .  S
C50          C51   1.380       .  A
C51          C52   1.361       .  A
C51          H54   1.083       .  S
C52          C53   1.379       .  A
C52          H55   1.080       .  S
C53         C460   1.487       .  S
O56          C72   1.278       .  A
O56       Zn1202   2.027       .  S
C57          C80   1.472       .  S
C57          O73   1.278       .  A
C57        O1210   1.275       .  A
O58          C71   1.273       .  A
O58         Cd65   2.082       .  S
O59          C77   1.267       .  A
O59         Cd68   2.024       .  S
O60          C74   1.278       .  A
O60         Cd64   2.104       .  S
O61        C1212   1.275       .  A
O61         Cd64   2.084   1_655  S
Zn62         O75   2.008   1_655  S
Zn62       O1196   2.027       .  S
Zn62       O1213   2.027       .  S
Zn62         O67   1.932   1_655  S
O63          C74   1.278       .  A
O63         Cd68   2.104       .  S
Cd64         O66   2.024       .  S
Cd64         O67   2.011       .  S
Cd65         O69   2.067       .  S
Cd65         O78   2.068       .  S
Cd65         O67   2.000       .  S
O66          C76   1.267       .  A
O67         Cd68   2.011       .  S
Cd68         O70   2.084   1_455  S
O69          C76   1.274       .  A
O70        C1197   1.275       .  A
C71          O75   1.269       .  A
C72        O1201   1.275       .  A
O73       Zn1202   2.027       .  S
C76         C527   1.441       .  S
C77         C325   1.441       .  S
C77          O78   1.274       .  A
N79          C83   1.370       .  A
N79          C80   1.366       .  A
N79         C223   1.457       .  S
C80          C81   1.380       .  A
C81          C82   1.361       .  A
C81          H84   1.083       .  S
C82          C83   1.379       .  A
C82          H85   1.080       .  S
C83         C288   1.487       .  S
N86          C90   1.370       .  A
N86          C87   1.366       .  A
N86         C247   1.457       .  S
C87         C109   1.472       .  S
C87          C88   1.380       .  A
C88          C89   1.361       .  A
C88          H91   1.083       .  S
C89          C90   1.379       .  A
C89          H92   1.080       .  S
C90         C250   1.487       .  S
O93         C109   1.278       .  A
O93         Zn99   2.027       .  S
C94         C117   1.472       .  S
C94         O110   1.278       .  A
C94         O107   1.275       .  A
O95         C108   1.273       .  A
O95        Cd102   2.082       .  S
O96         C114   1.267       .  A
O96        Cd105   2.024       .  S
O97         C111   1.278       .  A
O97        Cd101   2.104       .  S
O98         C109   1.275       .  A
O98       Cd1241   2.084       .  S
Zn99        O110   2.027       .  S
Zn99        O112   2.008       .  S
Zn99       O1244   1.932       .  S
O100        C111   1.278       .  A
O100       Cd105   2.104       .  S
Cd101       O103   2.024       .  S
Cd101      O1238   2.084       .  S
Cd101       O104   2.011       .  S
Cd102       O106   2.067       .  S
Cd102       O115   2.068       .  S
Cd102       O104   2.000       .  S
O103        C113   1.267       .  A
O104      Zn1239   1.932       .  S
O104       Cd105   2.011       .  S
Cd105      O1247   2.084       .  S
O106        C113   1.274       .  A
O107      Cd1245   2.084       .  S
C108       C1167   1.463       .  S
C108       O1252   1.269       .  A
C111       C1185   1.484       .  S
O112       C1248   1.269       .  A
C113        C317   1.441       .  S
C114        C489   1.441       .  S
C114        O115   1.274       .  A
N116        C120   1.370       .  A
N116        C117   1.366       .  A
N116        C433   1.457       .  S
C117        C118   1.380       .  A
C118        C119   1.361       .  A
C118        H121   1.083       .  S
C119        C120   1.379       .  A
C119        H122   1.080       .  S
C120        C452   1.487       .  S
N123        C127   1.368       .  A
N123        C124   1.372       .  A
N123        C290   1.458       .  S
C124        C302   1.487       .  S
C124        C125   1.379       .  A
C125        C126   1.359       .  A
C125        H128   1.078       .  S
C126        C127   1.380       .  A
C126        H129   1.083       .  S
C127        C131   1.473       .  S
O130        C146   1.282       .  A
O130       Zn136   2.032       .  S
C131        O147   1.282       .  A
C131        O144   1.269       .  A
O132        C715   1.267   1_545  A
O132       Cd139   2.046       .  S
O133        C151   1.273       .  A
O133       Cd142   2.057   1_545  S
O134        C148   1.276       .  A
O134       Cd138   2.077       .  S
O135        C146   1.269       .  A
O135       Cd708   2.078       .  S
Zn136       O147   2.032       .  S
Zn136       O149   2.113       .  S
Zn136       O711   1.912       .  S
O137        C148   1.276       .  A
O137       Cd142   2.077       .  S
Cd138       O140   2.057   1_565  S
Cd138       O705   2.078       .  S
Cd138       O141   2.029       .  S
Cd139       O143   2.018       .  S
Cd139       O152   2.018       .  S
Cd139       O141   1.975   1_545  S
O140        C150   1.273       .  A
O141       Zn706   1.912       .  S
O141       Cd142   2.029       .  S
Cd142       O714   2.078       .  S
O143        C150   1.268       .  A
O144       Cd712   2.078       .  S
C145        O149   1.282       .  A
C145        O702   1.267       .  A
C146        C157   1.473       .  S
C148        C573   1.472       .  S
C150        C405   1.448       .  S
C151        C218   1.448       .  S
C151        O152   1.268       .  A
N153        C157   1.368       .  A
N153        C154   1.372       .  A
N153        C477   1.458       .  S
C154        C504   1.487       .  S
C154        C155   1.379       .  A
C155        C156   1.359       .  A
C155        H158   1.079       .  S
C156        C157   1.380       .  A
C156        H159   1.083       .  S
N160        C164   1.368       .  A
N160        C161   1.372       .  A
N160        C454   1.458       .  S
C161        C512   1.487       .  S
C161        C162   1.379       .  A
C162        C163   1.359       .  A
C162        H165   1.078       .  S
C163        C164   1.380       .  A
C163        H166   1.083       .  S
C164        C168   1.473       .  S
O167        C183   1.282       .  A
O167       Zn743   2.032       .  S
C168        O184   1.282       .  A
C168        O751   1.269       .  A
O169        C182   1.267       .  A
O169       Cd176   2.046       .  S
O170        C188   1.273       .  A
O170       Cd179   2.057       .  S
O171        C185   1.276       .  A
O171       Cd175   2.077       .  S
O172        C753   1.269       .  A
O172       Cd175   2.078       .  S
Zn173       O186   2.113       .  S
Zn173       O737   2.032       .  S
Zn173       O754   2.032       .  S
Zn173       O178   1.912       .  S
O174        C185   1.276       .  A
O174       Cd179   2.077       .  S
Cd175       O177   2.057       .  S
Cd175       O178   2.030       .  S
Cd176       O180   2.018       .  S
Cd176       O189   2.018       .  S
Cd176       O178   1.975       .  S
O177        C187   1.273       .  A
O178       Cd179   2.030       .  S
Cd179       O181   2.078       .  S
O180        C187   1.268       .  A
O181        C738   1.269       .  A
C182        O186   1.282       .  A
C183        C194   1.473       .  S
C183        O742   1.269       .  A
O184       Zn743   2.032       .  S
C187        C241   1.448       .  S
C188        C428   1.448       .  S
C188        O189   1.268       .  A
N190        C194   1.368       .  A
N190        C191   1.372       .  A
N190        C267   1.458       .  S
C191        C340   1.487       .  S
C191        C192   1.379       .  A
C192        C193   1.359       .  A
C192        H195   1.079       .  S
C193        C194   1.380       .  A
C193        H196   1.083       .  S
C197        N198   1.358       .  A
C197        N202   1.355       .  A
C197        C321   1.459       .  S
N198        C199   1.354       .  A
C199        N200   1.357       .  A
C199        C269   1.458       .  S
N200        C201   1.354       .  A
C201        N202   1.358       .  A
C201        C224   1.458       .  S
O203        C219   1.274       .  A
O203      Zn1349   2.020   1_455  S
C204        O220   1.277   1_655  A
C204       O1357   1.266       .  A
O205        C218   1.269       .  A
O205       Cd212   2.036       .  S
O206        C224   1.267       .  A
O206       Cd215   2.024       .  S
O207        C221   1.288       .  A
O207       Cd211   2.127       .  S
O208        C219   1.283       .  A
O208       Cd211   2.154       .  S
Zn209       O222   1.981       .  S
Zn209      O1343   2.020       .  S
Zn209      O1360   2.062       .  S
Zn209       O214   1.915       .  S
O210        C221   1.261       .  A
O210      Cd1355   1.993   1_455  S
Cd211      O1353   2.207   1_455  S
Cd211      O1354   1.997   1_455  S
Cd212       O216   2.044       .  S
Cd212       O225   2.082       .  S
Cd212       O214   1.966       .  S
O213        C223   1.297       .  A
O213      Cd1351   2.207       .  S
O214       Cd215   1.956       .  S
O214      Cd1351   1.997       .  S
Cd215       O217   2.007       .  S
Cd215      O1350   1.993       .  S
O216        C223   1.272       .  A
O217       C1344   1.266       .  A
C218        O222   1.272       .  A
C219        C351   1.487       .  S
O220      Zn1349   2.062   1_455  S
C221        C244   1.461       .  S
C224        O225   1.276       .  A
O226        C242   1.277       .  A
O226       Zn232   2.062       .  S
C227        C538   1.487       .  S
C227        O240   1.283       .  A
C227       O1383   1.274       .  A
O228        C241   1.269       .  A
O228       Cd235   2.036       .  S
O229        C247   1.297       .  A
O229       Cd238   2.207       .  S
O230        C244   1.261       .  A
O230       Cd234   1.994       .  S
O231        C242   1.266       .  A
O231       Cd234   2.007       .  S
Zn232       O243   2.020       .  S
Zn232       O245   1.981       .  S
Zn232       O237   1.915       .  S
O233        C244   1.288       .  A
O233       Cd238   2.127       .  S
Cd234       O236   2.024       .  S
Cd234       O237   1.956       .  S
Cd235       O239   2.082       .  S
Cd235       O248   2.044       .  S
Cd235       O237   1.966       .  S
O236        C246   1.267       .  A
O237       Cd238   1.997       .  S
Cd238      O1380   2.154   1_455  S
O239        C246   1.276       .  A
O240      Cd1378   2.154       .  S
C241        O245   1.272       .  A
O243       C1367   1.274   1_455  A
C246        C297   1.458       .  S
C247        O248   1.272       .  A
O249        C265   1.271       .  A
O249       Zn255   1.976       .  S
C250        O266   1.272       .  A
C250        O263   1.284       .  A
O251        C834   1.268       .  A
O251       Cd258   2.014       .  S
O252        C270   1.287       .  A
O252       Cd261   2.123       .  S
O253        C267   1.271       .  A
O253       Cd257   2.044       .  S
O254        C265   1.269       .  A
O254       Cd257   2.035       .  S
Zn255       O836   2.014   1_545  S
Zn255       O838   2.058   1_545  S
Zn255       O260   1.916       .  S
O256        C267   1.297       .  A
O256       Cd831   2.211   1_545  S
Cd257       O259   2.080       .  S
Cd257       O260   1.965       .  S
Cd258       O262   2.028       .  S
Cd258       O841   1.996   1_545  S
Cd258       O260   1.957       .  S
O259        C269   1.275       .  A
O260       Cd831   1.998   1_545  S
Cd261       O263   2.156       .  S
Cd261       O826   2.211       .  S
Cd261       O830   1.998       .  S
O262        C269   1.269       .  A
C264        O268   1.276       .  A
C264        O821   1.268       .  A
C265        C375   1.447       .  S
O266       Zn825   2.014       .  S
O268       Zn825   2.058       .  S
C270        C292   1.461       .  S
C270        O271   1.262       .  A
O271       Cd828   1.996       .  S
O272        C858   1.272       .  A
O272       Zn278   2.014       .  S
C273        C561   1.447       .  S
C273        O289   1.271       .  A
C273        O286   1.269       .  A
O274        C287   1.268       .  A
O274       Cd281   2.014       .  S
O275        C293   1.275       .  A
O275       Cd284   2.080       .  S
O276        C290   1.297       .  A
O276       Cd280   2.211       .  S
O277        C288   1.284       .  A
O277       Cd850   2.155   1_545  S
Zn278       O289   1.976       .  S
Zn278       O291   2.058       .  S
Zn278       O283   1.916       .  S
O279        C290   1.271       .  A
O279       Cd284   2.044       .  S
Cd280       O282   2.123       .  S
Cd280       O847   2.155       .  S
Cd280       O283   1.998       .  S
Cd281       O285   1.996       .  S
Cd281       O294   2.028       .  S
Cd281       O283   1.957       .  S
O282        C292   1.287       .  A
O283       Cd284   1.965       .  S
Cd284       O286   2.035       .  S
O285        C292   1.262       .  A
C287        O291   1.276       .  A
C288        O842   1.272   1_545  A
C293        C299   1.458       .  S
C293        O294   1.269       .  A
C295        N296   1.355       .  A
C295        N300   1.358       .  A
C295        C345   1.459       .  S
N296        C297   1.358       .  A
C297        N298   1.354       .  A
N298        C299   1.357       .  A
C299        N300   1.354       .  A
O301        C317   1.270       .  A
O301       Zn307   1.988       .  S
C302        O318   1.273       .  A
C302        O315   1.283       .  A
O303        C316   1.267       .  A
O303       Cd310   2.011       .  S
O304        C322   1.287       .  A
O304       Cd313   2.125       .  S
O305        C319   1.274       .  A
O305       Cd309   2.054       .  S
O306        C317   1.269       .  A
O306       Cd309   2.043       .  S
Zn307       O318   2.017       .  S
Zn307       O320   2.063       .  S
Zn307       O312   1.922       .  S
O308        C319   1.297       .  A
O308       Cd313   2.209       .  S
Cd309       O311   2.080       .  S
Cd309       O312   1.961       .  S
Cd310       O314   2.028       .  S
Cd310       O323   1.995       .  S
Cd310       O312   1.956       .  S
O311        C321   1.275       .  A
O312       Cd313   1.999       .  S
Cd313       O315   2.154       .  S
O314        C321   1.268       .  A
C316        O320   1.277       .  A
C319        N534   1.459       .  S
C322        C344   1.461       .  S
C322        O323   1.262       .  A
O324        C340   1.273       .  A
O324       Zn330   2.017       .  S
C325        O341   1.270       .  A
C325        O338   1.269       .  A
O326        C339   1.267       .  A
O326       Cd333   2.011       .  S
O327        C345   1.275       .  A
O327       Cd336   2.080       .  S
O328        C342   1.297       .  A
O328       Cd332   2.209       .  S
O329        C340   1.283       .  A
O329       Cd332   2.154       .  S
Zn330       O341   1.988       .  S
Zn330       O343   2.064       .  S
Zn330       O335   1.922       .  S
O331        C342   1.274       .  A
O331       Cd336   2.054       .  S
Cd332       O334   2.125       .  S
Cd332       O335   1.999       .  S
Cd333       O337   1.994       .  S
Cd333       O346   2.028       .  S
Cd333       O335   1.956       .  S
O334        C344   1.287       .  A
O335       Cd336   1.961       .  S
Cd336       O338   2.043       .  S
O337        C344   1.262       .  A
C339        O343   1.277       .  A
C342        N347   1.459       .  S
C345        O346   1.268       .  A
N347        C351   1.372       .  A
N347        C348   1.369       .  A
C348        C355   1.474       .  S
C348        C349   1.380       .  A
C349        C350   1.358       .  A
C349        H352   1.083       .  S
C350        C351   1.379       .  A
C350        H353   1.081       .  S
O354        C370   1.282       .  A
O354       Zn360   2.032       .  S
C355        O371   1.282       .  A
C355        O368   1.270       .  A
O356        C369   1.267       .  A
O356       Cd363   2.048       .  S
O357        C375   1.273       .  A
O357       Cd366   2.057       .  S
O358        C372   1.276       .  A
O358       Cd362   2.080       .  S
O359        C370   1.270       .  A
O359       Cd362   2.081       .  S
Zn360       O371   2.032       .  S
Zn360       O373   2.111       .  S
Zn360       O365   1.912       .  S
O361        C372   1.276       .  A
O361       Cd366   2.080       .  S
Cd362       O364   2.057       .  S
Cd362       O365   2.032       .  S
Cd363       O367   2.017       .  S
Cd363       O376   2.017       .  S
Cd363       O365   1.975       .  S
O364        C374   1.273       .  A
O365       Cd366   2.032       .  S
Cd366       O368   2.081       .  S
O367        C374   1.268       .  A
C369        O373   1.282       .  A
C370        C378   1.474       .  S
C374        C437   1.447       .  S
C375        O376   1.268       .  A
N377        C381   1.372       .  A
N377        C378   1.369       .  A
N377        C529   1.459       .  S
C378        C379   1.380       .  A
C379        C380   1.358       .  A
C379        H382   1.083       .  S
C380        C381   1.379       .  A
C380        H383   1.081       .  S
C381        C391   1.487       .  S
C384        N385   1.358       .  A
C384        N389   1.355       .  A
C384        C509   1.459       .  S
N385        C386   1.354       .  A
C386        N387   1.357       .  A
C386        C457   1.458       .  S
N387        C388   1.354       .  A
C388        N389   1.358       .  A
C388        C410   1.458       .  S
O390        C406   1.277   1_455  A
O390      Zn1536   2.062   1_455  S
C391        O407   1.274       .  A
C391        O404   1.283       .  A
O392        C405   1.269       .  A
O392       Cd399   2.036       .  S
O393        C411   1.297       .  A
O393      Cd1542   2.207       .  S
O394        C408   1.261       .  A
O394      Cd1538   1.994   1_455  S
O395       C1546   1.266       .  A
O395       Cd398   2.007       .  S
Zn396       O409   1.981       .  S
Zn396      O1530   2.062       .  S
Zn396      O1547   2.020       .  S
Zn396       O401   1.915       .  S
O397        C408   1.288   1_554  A
O397       Cd402   2.127       .  S
Cd398       O400   2.024       .  S
Cd398      O1534   1.994       .  S
Cd398       O401   1.956       .  S
Cd399       O403   2.082       .  S
Cd399       O412   2.044   1_556  S
Cd399       O401   1.966       .  S
O400        C410   1.267       .  A
O401      Cd1542   1.997   1_556  S
Cd402       O404   2.154   1_554  S
Cd402      O1533   2.207   1_455  S
Cd402      O1541   1.997   1_454  S
O403        C410   1.276       .  A
C405        O409   1.272       .  A
C406       O1535   1.266       .  A
O407      Zn1536   2.020   1_455  S
C408        C431   1.461   1_556  S
C411        O412   1.272       .  A
O413       C1569   1.274   1_455  A
O413       Zn419   2.020       .  S
C414        O430   1.277       .  A
C414        O427   1.266       .  A
O415        C428   1.269       .  A
O415       Cd422   2.036       .  S
O416        C434   1.267       .  A
O416       Cd425   2.024       .  S
O417        C431   1.288   1_556  A
O417       Cd421   2.127   1_556  S
O418        C429   1.283       .  A
O418      Cd1561   2.154       .  S
Zn419       O430   2.062       .  S
Zn419       O432   1.981       .  S
Zn419       O424   1.915       .  S
O420        C431   1.261       .  A
O420       Cd425   1.993       .  S
Cd421       O423   2.207   1_554  S
Cd421      O1558   2.154   1_455  S
Cd421       O424   1.997       .  S
Cd422       O426   2.044   1_554  S
Cd422       O435   2.082       .  S
Cd422       O424   1.966       .  S
O423        C433   1.297       .  A
O424       Cd425   1.956       .  S
Cd425       O427   2.007       .  S
O426        C433   1.272       .  A
C428        O432   1.272       .  A
C429        C568   1.487       .  S
C429       O1553   1.274       .  A
C434        C484   1.458       .  S
C434        O435   1.276       .  A
O436        C452   1.272       .  A
O436      Zn1012   2.014       .  S
C437        O453   1.271       .  A
C437        O450   1.269       .  A
O438       C1021   1.268       .  A
O438       Cd445   2.014       .  S
O439        C457   1.275       .  A
O439       Cd448   2.080       .  S
O440        C454   1.297       .  A
O440      Cd1014   2.211   1_545  S
O441        C452   1.284       .  A
O441       Cd444   2.155   1_556  S
Zn442       O453   1.976       .  S
Zn442      O1006   2.014   1_545  S
Zn442      O1025   2.058   1_545  S
Zn442       O447   1.916       .  S
O443        C454   1.271       .  A
O443       Cd448   2.044   1_554  S
Cd444       O446   2.123       .  S
Cd444      O1010   2.211       .  S
Cd444      O1017   1.998   1_554  S
Cd445       O458   2.028       .  S
Cd445      O1019   1.996   1_545  S
Cd445       O447   1.957       .  S
O446        C456   1.287   1_554  A
O447       Cd448   1.965       .  S
O447      Cd1014   1.998   1_546  S
Cd448       O450   2.035       .  S
O449        C456   1.262       .  A
O449      Cd1015   1.996       .  S
C451        O455   1.276       .  A
C451       O1008   1.268       .  A
O455      Zn1012   2.058       .  S
C456        C480   1.461   1_556  S
C457        O458   1.269       .  A
O459        C475   1.271       .  A
O459       Zn465   1.976       .  S
C460        O473   1.284       .  A
C460       O1046   1.272   1_545  A
O461        C474   1.268       .  A
O461       Cd468   2.014       .  S
O462        C480   1.287   1_556  A
O462       Cd471   2.123   1_556  S
O463        C477   1.271       .  A
O463       Cd467   2.044   1_556  S
O464        C475   1.269       .  A
O464       Cd467   2.035       .  S
Zn465       O476   2.014       .  S
Zn465       O478   2.058       .  S
Zn465       O470   1.916       .  S
O466        C477   1.297       .  A
O466       Cd471   2.211   1_556  S
Cd467       O469   2.080       .  S
Cd467       O470   1.965       .  S
Cd468       O472   2.029       .  S
Cd468       O481   1.996       .  S
Cd468       O470   1.957       .  S
O469        C479   1.275       .  A
O470       Cd471   1.998       .  S
Cd471      O1043   2.155       .  S
O472        C479   1.269       .  A
O473      Cd1041   2.155   1_545  S
C474        O478   1.276       .  A
C475        C562   1.447       .  S
O476       C1030   1.272       .  A
C479        C486   1.458       .  S
C480        O481   1.262       .  A
C482        N483   1.355       .  A
C482        N487   1.358       .  A
C482        C531   1.459       .  S
N483        C484   1.358       .  A
C484        N485   1.354       .  A
N485        C486   1.357       .  A
C486        N487   1.354       .  A
O488        C504   1.273       .  A
O488       Zn494   2.017       .  S
C489        O505   1.270       .  A
C489        O502   1.269       .  A
O490        C503   1.267       .  A
O490       Cd497   2.011       .  S
O491        C509   1.275       .  A
O491       Cd500   2.081       .  S
O492        C506   1.297       .  A
O492       Cd496   2.209       .  S
O493        C504   1.283       .  A
O493       Cd496   2.154   1_556  S
Zn494       O505   1.988       .  S
Zn494       O507   2.063       .  S
Zn494       O499   1.922       .  S
O495        C506   1.274       .  A
O495       Cd500   2.054   1_554  S
Cd496       O498   2.125       .  S
Cd496       O499   1.999   1_554  S
Cd497       O501   1.994       .  S
Cd497       O510   2.028       .  S
Cd497       O499   1.956       .  S
O498        C508   1.287   1_554  A
O499       Cd500   1.961       .  S
Cd500       O502   2.043       .  S
O501        C508   1.262       .  A
C503        O507   1.277       .  A
C506        N564   1.459       .  S
C508        C532   1.461   1_556  S
C509        O510   1.268       .  A
O511        C527   1.270       .  A
O511       Zn517   1.988       .  S
C512        O528   1.273       .  A
C512        O525   1.283       .  A
O513        C526   1.267       .  A
O513       Cd520   2.011       .  S
O514        C532   1.287   1_556  A
O514       Cd523   2.125       .  S
O515        C529   1.274       .  A
O515       Cd519   2.054   1_556  S
O516        C527   1.269       .  A
O516       Cd519   2.043       .  S
Zn517       O528   2.017       .  S
Zn517       O530   2.063       .  S
Zn517       O522   1.922       .  S
O518        C529   1.297       .  A
O518       Cd523   2.209       .  S
Cd519       O521   2.080       .  S
Cd519       O522   1.961       .  S
Cd520       O524   2.028       .  S
Cd520       O533   1.995       .  S
Cd520       O522   1.956       .  S
O521        C531   1.275       .  A
O522       Cd523   1.999   1_554  S
Cd523       O525   2.154   1_556  S
O524        C531   1.268       .  A
C526        O530   1.277       .  A
C532        O533   1.262       .  A
N534        C538   1.372       .  A
N534        C535   1.369       .  A
C535        C557   1.474       .  S
C535        C536   1.380       .  A
C536        C537   1.358       .  A
C536        H539   1.083       .  S
C537        C538   1.379       .  A
C537        H540   1.081       .  S
O541        C557   1.282       .  A
O541       Zn547   2.032       .  S
C542        C565   1.474       .  S
C542        O558   1.282       .  A
C542        O555   1.270       .  A
O543        C556   1.267       .  A
O543       Cd550   2.048       .  S
O544        C562   1.273       .  A
O544       Cd553   2.057       .  S
O545        C559   1.276       .  A
O545       Cd549   2.080       .  S
O546        C557   1.270       .  A
O546       Cd549   2.081       .  S
Zn547       O558   2.031       .  S
Zn547       O560   2.112       .  S
Zn547       O552   1.912       .  S
O548        C559   1.276       .  A
O548       Cd553   2.080       .  S
Cd549       O551   2.057       .  S
Cd549       O552   2.032       .  S
Cd550       O554   2.017       .  S
Cd550       O563   2.017       .  S
Cd550       O552   1.975       .  S
O551        C561   1.273       .  A
O552       Cd553   2.032       .  S
Cd553       O555   2.081       .  S
O554        C561   1.268       .  A
C556        O560   1.282       .  A
C562        O563   1.268       .  A
N564        C568   1.372       .  A
N564        C565   1.369       .  A
C565        C566   1.380       .  A
C566        C567   1.358       .  A
C566        H569   1.083       .  S
C567        C568   1.379       .  A
C567        H570   1.081       .  S
C571        N572   1.360       .  A
C571        N576   1.361       .  A
C571       C1021   1.461   1_565  S
N572        C573   1.353       .  A
C573        N574   1.352       .  A
N574        C575   1.360       .  A
C575        N576   1.361       .  A
C575        C834   1.461   1_565  S
C577        N578   1.360       .  A
C577        N582   1.361       .  A
C577        C857   1.461       .  S
N578        C579   1.353       .  A
C579        N580   1.353       .  A
C579        C755   1.472       .  S
N580        C581   1.360       .  A
C581        N582   1.361       .  A
C581       C1044   1.461       .  S
C583        N584   1.360       .  A
C583        N588   1.361       .  A
C583       C1096   1.461       .  S
N584        C585   1.353       .  A
C585        N586   1.353       .  A
C585       C1129   1.473       .  S
N586        C587   1.360       .  A
C587        N588   1.361       .  A
C587        C909   1.462       .  S
C589        N590   1.361       .  A
C589        N594   1.360       .  A
C589       C1073   1.462       .  S
N590        C591   1.361       .  A
C591        N592   1.360       .  A
C591        C886   1.461       .  S
N592        C593   1.353       .  A
C593        N594   1.353       .  A
C593        C942   1.473       .  S
C595        N596   1.360       .  A
C595        N600   1.361       .  A
C595        C976   1.460   1_455  S
N596        C597   1.351       .  A
C597        N598   1.351       .  A
C597       C1818   1.463       .  S
N598        C599   1.360       .  A
C599        N600   1.361       .  A
C599        C774   1.460   1_455  S
C601        N602   1.360       .  A
C601        N606   1.361       .  A
C601        C984   1.460       .  S
N602        C603   1.351       .  A
C603        N604   1.351       .  A
C603        C641   1.463       .  S
N604        C605   1.360       .  A
C605        N606   1.361       .  A
C605        C812   1.460       .  S
C607        N612   1.369       .  A
C607        C752   1.492       .  S
N608        C609   1.367       .  A
C609       N1180   1.360   1_455  A
C609        C644   1.484       .  S
N610       C1179   1.360   1_565  A
N610        C611   1.364       .  A
C611       N1752   1.361       .  A
C611       C1126   1.493       .  S
N612       C1751   1.361   1_455  A
C613        N614   1.366       .  A
C613       N1188   1.369   1_565  A
C613        C715   1.492       .  S
N614       C1755   1.367       .  A
C615       N1754   1.367   1_455  A
C615        N616   1.360       .  A
C615       C1821   1.484       .  S
C617        N618   1.361       .  A
C617        C939   1.493       .  S
N618       C1183   1.369   1_455  A
N619        C623   1.370       .  A
N619        C620   1.366       .  A
N619        C981   1.457       .  S
C620        C642   1.472       .  S
C620        C621   1.380       .  A
C621        C622   1.361       .  A
C621        H624   1.083       .  S
C622        C623   1.379       .  A
C622        H625   1.080       .  S
C623       C1030   1.487       .  S
O626        C642   1.278       .  A
O626      Zn1772   2.027       .  S
C627        C650   1.472       .  S
C627        O643   1.278       .  A
C627       O1780   1.275       .  A
O628        C641   1.273       .  A
O628       Cd635   2.082       .  S
O629        C647   1.267       .  A
O629       Cd638   2.024       .  S
O630        C644   1.278       .  A
O630       Cd634   2.104       .  S
O631       C1782   1.275       .  A
O631       Cd634   2.084   1_655  S
Zn632      O1766   2.027       .  S
Zn632      O1783   2.027       .  S
Zn632       O645   2.008   1_655  S
Zn632       O637   1.932   1_655  S
O633        C644   1.278       .  A
O633       Cd638   2.104       .  S
Cd634       O636   2.024       .  S
Cd634       O637   2.011       .  S
Cd635       O639   2.067       .  S
Cd635       O648   2.068       .  S
Cd635       O637   2.000       .  S
O636        C646   1.267       .  A
O637       Cd638   2.011       .  S
Cd638       O640   2.084   1_455  S
O639        C646   1.274       .  A
O640       C1767   1.275       .  A
C641        O645   1.269       .  A
C642       O1771   1.275       .  A
O643      Zn1772   2.027       .  S
C646       C1097   1.441       .  S
C647        C895   1.441       .  S
C647        O648   1.274       .  A
N649        C653   1.370       .  A
N649        C650   1.366       .  A
N649        C793   1.457       .  S
C650        C651   1.380       .  A
C651        C652   1.361       .  A
C651        H654   1.083       .  S
C652        C653   1.379       .  A
C652        H655   1.080       .  S
C653        C858   1.487       .  S
N656        C660   1.370       .  A
N656        C657   1.366       .  A
N656        C817   1.457       .  S
C657        C679   1.472       .  S
C657        C658   1.380       .  A
C658        C659   1.361       .  A
C658        H661   1.083       .  S
C659        C660   1.379       .  A
C659        H662   1.080       .  S
C660        C820   1.487       .  S
O663        C679   1.278       .  A
O663       Zn669   2.027       .  S
C664        C687   1.472       .  S
C664        O680   1.278       .  A
C664        O677   1.275       .  A
O665        C678   1.273       .  A
O665       Cd672   2.082       .  S
O666        C684   1.267       .  A
O666       Cd675   2.024       .  S
O667        C681   1.278       .  A
O667       Cd671   2.104       .  S
O668        C679   1.275       .  A
O668      Cd1811   2.084       .  S
Zn669       O680   2.027       .  S
Zn669       O682   2.008       .  S
Zn669      O1814   1.932       .  S
O670        C681   1.278       .  A
O670       Cd675   2.104       .  S
Cd671      O1808   2.084       .  S
Cd671       O673   2.024       .  S
Cd671       O674   2.011       .  S
Cd672       O676   2.067       .  S
Cd672       O685   2.068       .  S
Cd672       O674   2.000       .  S
O673        C683   1.267       .  A
O674      Zn1809   1.932       .  S
O674       Cd675   2.011       .  S
Cd675      O1817   2.084       .  S
O676        C683   1.274       .  A
O677      Cd1815   2.084       .  S
C678       C1737   1.463       .  S
C678       O1822   1.269       .  A
C681       C1755   1.484       .  S
O682       C1818   1.269       .  A
C683        C887   1.441       .  S
C684       C1059   1.441       .  S
C684        O685   1.274       .  A
N686        C690   1.370       .  A
N686        C687   1.366       .  A
N686       C1003   1.457       .  S
C687        C688   1.380       .  A
C688        C689   1.361       .  A
C688        H691   1.083       .  S
C689        C690   1.379       .  A
C689        H692   1.080       .  S
C690       C1022   1.487       .  S
N693        C697   1.368       .  A
N693        C694   1.372       .  A
N693        C860   1.458       .  S
C694        C872   1.487       .  S
C694        C695   1.379       .  A
C695        C696   1.359       .  A
C695        H698   1.078       .  S
C696        C697   1.380       .  A
C696        H699   1.083       .  S
C697        C701   1.473       .  S
O700        C716   1.282       .  A
O700       Zn706   2.032       .  S
C701        O717   1.282       .  A
C701        O714   1.269       .  A
O702       Cd709   2.045       .  S
O703        C721   1.273       .  A
O703       Cd712   2.057       .  S
O704        C718   1.276       .  A
O704       Cd708   2.077       .  S
O705        C716   1.269       .  A
Zn706       O717   2.032       .  S
Zn706       O719   2.113       .  S
O707        C718   1.276       .  A
O707       Cd712   2.078       .  S
Cd708       O710   2.057       .  S
Cd708       O711   2.029       .  S
Cd709       O713   2.018       .  S
Cd709       O722   2.018       .  S
Cd709       O711   1.975       .  S
O710        C720   1.273       .  A
O711       Cd712   2.029       .  S
O713        C720   1.268       .  A
C715        O719   1.282       .  A
C716        C727   1.473       .  S
C720        C975   1.448       .  S
C721        C788   1.448       .  S
C721        O722   1.268       .  A
N723        C727   1.368       .  A
N723        C724   1.372       .  A
N723       C1047   1.458       .  S
C724       C1074   1.487       .  S
C724        C725   1.379       .  A
C725        C726   1.359       .  A
C725        H728   1.079       .  S
C726        C727   1.380       .  A
C726        H729   1.083       .  S
N730        C734   1.368       .  A
N730        C731   1.372       .  A
N730       C1024   1.458       .  S
C731       C1082   1.487       .  S
C731        C732   1.379       .  A
C732        C733   1.359       .  A
C732        H735   1.078       .  S
C733        C734   1.380       .  A
C733        H736   1.083       .  S
C734        C738   1.473       .  S
O737        C753   1.282       .  A
C738        O754   1.282       .  A
O739        C752   1.267       .  A
O739       Cd746   2.045       .  S
O740        C758   1.273       .  A
O740       Cd749   2.057       .  S
O741        C755   1.276       .  A
O741       Cd745   2.077       .  S
O742       Cd745   2.078   1_545  S
Zn743       O756   2.113       .  S
Zn743       O748   1.912   1_545  S
O744        C755   1.276       .  A
O744       Cd749   2.077       .  S
Cd745       O747   2.057       .  S
Cd745       O748   2.029       .  S
Cd746       O750   2.018       .  S
Cd746       O759   2.018       .  S
Cd746       O748   1.975       .  S
O747        C757   1.273       .  A
O748       Cd749   2.029       .  S
Cd749       O751   2.078   1_565  S
O750        C757   1.268       .  A
C752        O756   1.282   1_565  A
C753        C764   1.473       .  S
C757        C811   1.448       .  S
C758        C998   1.448       .  S
C758        O759   1.268       .  A
N760        C764   1.368       .  A
N760        C761   1.372       .  A
N760        C837   1.458       .  S
C761        C910   1.487       .  S
C761        C762   1.379       .  A
C762        C763   1.359       .  A
C762        H765   1.079       .  S
C763        C764   1.380       .  A
C763        H766   1.083       .  S
C767        N768   1.358       .  A
C767        N772   1.355       .  A
C767        C891   1.459       .  S
N768        C769   1.354       .  A
C769        N770   1.357       .  A
C769        C839   1.458       .  S
N770        C771   1.354       .  A
C771        N772   1.358       .  A
C771        C794   1.458       .  S
O773        C789   1.274       .  A
O773      Zn1919   2.020   1_455  S
C774        O790   1.277   1_655  A
C774       O1927   1.266       .  A
O775        C788   1.269       .  A
O775       Cd782   2.036       .  S
O776        C794   1.267       .  A
O776       Cd785   2.024       .  S
O777        C791   1.288       .  A
O777       Cd781   2.127       .  S
O778        C789   1.283       .  A
O778       Cd781   2.154       .  S
Zn779      O1913   2.020       .  S
Zn779      O1930   2.062       .  S
Zn779       O792   1.981       .  S
Zn779       O784   1.915       .  S
O780        C791   1.261       .  A
O780      Cd1925   1.993   1_455  S
Cd781      O1923   2.207   1_455  S
Cd781      O1924   1.997   1_455  S
Cd782       O786   2.044       .  S
Cd782       O795   2.082       .  S
Cd782       O784   1.966       .  S
O783        C793   1.297       .  A
O783      Cd1921   2.207       .  S
O784      Cd1921   1.997       .  S
O784       Cd785   1.956       .  S
Cd785      O1920   1.993       .  S
Cd785       O787   2.007       .  S
O786        C793   1.272       .  A
O787       C1914   1.266       .  A
C788        O792   1.272       .  A
C789        C921   1.487       .  S
O790      Zn1919   2.062   1_455  S
C791        C814   1.461       .  S
C794        O795   1.276       .  A
O796        C812   1.277       .  A
O796       Zn802   2.062       .  S
C797       C1108   1.487       .  S
C797       O1953   1.274       .  A
C797        O810   1.283       .  A
O798        C811   1.269       .  A
O798       Cd805   2.036       .  S
O799        C817   1.297       .  A
O799       Cd808   2.207       .  S
O800        C814   1.261       .  A
O800       Cd804   1.994       .  S
O801        C812   1.266       .  A
O801       Cd804   2.007       .  S
Zn802       O813   2.020       .  S
Zn802       O815   1.981       .  S
Zn802       O807   1.915       .  S
O803        C814   1.288       .  A
O803       Cd808   2.127       .  S
Cd804       O806   2.024       .  S
Cd804       O807   1.956       .  S
Cd805       O809   2.082       .  S
Cd805       O818   2.044       .  S
Cd805       O807   1.966       .  S
O806        C816   1.267       .  A
O807       Cd808   1.997       .  S
Cd808      O1950   2.154   1_455  S
O809        C816   1.276       .  A
O810      Cd1948   2.154       .  S
C811        O815   1.272       .  A
O813       C1937   1.274   1_455  A
C816        C867   1.458       .  S
C817        O818   1.272       .  A
O819        C835   1.271       .  A
O819       Zn825   1.976       .  S
C820        O836   1.272       .  A
C820        O833   1.284       .  A
O821       Cd828   2.014       .  S
O822        C840   1.287       .  A
O822       Cd831   2.123       .  S
O823        C837   1.271       .  A
O823       Cd827   2.044       .  S
O824        C835   1.269       .  A
O824       Cd827   2.035       .  S
Zn825       O830   1.916       .  S
O826        C837   1.297       .  A
Cd827       O829   2.080       .  S
Cd827       O830   1.965       .  S
Cd828       O832   2.028       .  S
Cd828       O830   1.957       .  S
O829        C839   1.275       .  A
Cd831       O833   2.156       .  S
O832        C839   1.269       .  A
C834        O838   1.276   1_545  A
C835        C945   1.447       .  S
C840        C862   1.461       .  S
C840        O841   1.262       .  A
O842       Zn848   2.014       .  S
C843       C1131   1.447       .  S
C843        O859   1.271       .  A
C843        O856   1.269       .  A
O844        C857   1.268       .  A
O844       Cd851   2.014       .  S
O845        C863   1.275       .  A
O845       Cd854   2.080       .  S
O846        C860   1.297       .  A
O846       Cd850   2.211       .  S
O847        C858   1.284       .  A
Zn848       O859   1.976       .  S
Zn848       O861   2.058       .  S
Zn848       O853   1.916       .  S
O849        C860   1.271       .  A
O849       Cd854   2.044       .  S
Cd850       O852   2.123       .  S
Cd850       O853   1.998       .  S
Cd851       O855   1.996       .  S
Cd851       O864   2.028       .  S
Cd851       O853   1.957       .  S
O852        C862   1.287       .  A
O853       Cd854   1.965       .  S
Cd854       O856   2.035       .  S
O855        C862   1.262       .  A
C857        O861   1.276       .  A
C863        C869   1.458       .  S
C863        O864   1.269       .  A
C865        N866   1.355       .  A
C865        N870   1.358       .  A
C865        C915   1.459       .  S
N866        C867   1.358       .  A
C867        N868   1.354       .  A
N868        C869   1.357       .  A
C869        N870   1.354       .  A
O871        C887   1.270       .  A
O871       Zn877   1.988       .  S
C872        O888   1.273       .  A
C872        O885   1.283       .  A
O873        C886   1.267       .  A
O873       Cd880   2.011       .  S
O874        C892   1.287       .  A
O874       Cd883   2.125       .  S
O875        C889   1.274       .  A
O875       Cd879   2.054       .  S
O876        C887   1.269       .  A
O876       Cd879   2.043       .  S
Zn877       O888   2.017       .  S
Zn877       O890   2.063       .  S
Zn877       O882   1.922       .  S
O878        C889   1.297       .  A
O878       Cd883   2.209       .  S
Cd879       O881   2.080       .  S
Cd879       O882   1.961       .  S
Cd880       O884   2.028       .  S
Cd880       O893   1.995       .  S
Cd880       O882   1.956       .  S
O881        C891   1.275       .  A
O882       Cd883   1.999       .  S
Cd883       O885   2.154       .  S
O884        C891   1.268       .  A
C886        O890   1.277       .  A
C889       N1104   1.459       .  S
C892        C914   1.461       .  S
C892        O893   1.262       .  A
O894        C910   1.273       .  A
O894       Zn900   2.017       .  S
C895        O911   1.270       .  A
C895        O908   1.269       .  A
O896        C909   1.267       .  A
O896       Cd903   2.011       .  S
O897        C915   1.275       .  A
O897       Cd906   2.080       .  S
O898        C912   1.297       .  A
O898       Cd902   2.209       .  S
O899        C910   1.283       .  A
O899       Cd902   2.154       .  S
Zn900       O911   1.988       .  S
Zn900       O913   2.064       .  S
Zn900       O905   1.922       .  S
O901        C912   1.274       .  A
O901       Cd906   2.054       .  S
Cd902       O904   2.125       .  S
Cd902       O905   1.999       .  S
Cd903       O907   1.994       .  S
Cd903       O916   2.028       .  S
Cd903       O905   1.956       .  S
O904        C914   1.287       .  A
O905       Cd906   1.961       .  S
Cd906       O908   2.043       .  S
O907        C914   1.262       .  A
C909        O913   1.277       .  A
C912        N917   1.459       .  S
C915        O916   1.268       .  A
N917        C921   1.372       .  A
N917        C918   1.369       .  A
C918        C925   1.474       .  S
C918        C919   1.380       .  A
C919        C920   1.358       .  A
C919        H922   1.083       .  S
C920        C921   1.379       .  A
C920        H923   1.081       .  S
O924        C940   1.282       .  A
O924       Zn930   2.032       .  S
C925        O941   1.282       .  A
C925        O938   1.270       .  A
O926        C939   1.267       .  A
O926       Cd933   2.048       .  S
O927        C945   1.273       .  A
O927       Cd936   2.057       .  S
O928        C942   1.276       .  A
O928       Cd932   2.080       .  S
O929        C940   1.270       .  A
O929       Cd932   2.081       .  S
Zn930       O941   2.032       .  S
Zn930       O943   2.112       .  S
Zn930       O935   1.912       .  S
O931        C942   1.276       .  A
O931       Cd936   2.080       .  S
Cd932       O934   2.057       .  S
Cd932       O935   2.032       .  S
Cd933       O937   2.017       .  S
Cd933       O946   2.017       .  S
Cd933       O935   1.975       .  S
O934        C944   1.273       .  A
O935       Cd936   2.032       .  S
Cd936       O938   2.081       .  S
O937        C944   1.268       .  A
C939        O943   1.282       .  A
C940        C948   1.474       .  S
C944       C1007   1.447       .  S
C945        O946   1.268       .  A
N947        C951   1.372       .  A
N947        C948   1.369       .  A
N947       C1099   1.459       .  S
C948        C949   1.380       .  A
C949        C950   1.358       .  A
C949        H952   1.083       .  S
C950        C951   1.379       .  A
C950        H953   1.081       .  S
C951        C961   1.487       .  S
C954        N955   1.358       .  A
C954        N959   1.355       .  A
C954       C1079   1.459       .  S
N955        C956   1.354       .  A
C956        N957   1.357       .  A
C956       C1027   1.458       .  S
N957        C958   1.354       .  A
C958        N959   1.358       .  A
C958        C980   1.458       .  S
O960        C976   1.277   1_455  A
O960      Zn2106   2.062   1_455  S
C961        O977   1.274       .  A
C961        O974   1.283       .  A
O962        C975   1.269       .  A
O962       Cd969   2.036       .  S
O963        C981   1.297       .  A
O963      Cd2112   2.207       .  S
O964        C978   1.261       .  A
O964      Cd2108   1.994   1_455  S
O965       C2116   1.266       .  A
O965       Cd968   2.007       .  S
Zn966      O2100   2.062       .  S
Zn966      O2117   2.020       .  S
Zn966       O979   1.981       .  S
Zn966       O971   1.915       .  S
O967        C978   1.288   1_554  A
O967       Cd972   2.127       .  S
Cd968      O2104   1.994       .  S
Cd968       O970   2.024       .  S
Cd968       O971   1.956       .  S
Cd969       O973   2.082       .  S
Cd969       O982   2.044   1_556  S
Cd969       O971   1.966       .  S
O970        C980   1.267       .  A
O971      Cd2112   1.997   1_556  S
Cd972      O2103   2.207   1_455  S
Cd972       O974   2.154   1_554  S
Cd972      O2111   1.997   1_454  S
O973        C980   1.276       .  A
C975        O979   1.272       .  A
C976       O2105   1.266       .  A
O977      Zn2106   2.020   1_455  S
C978       C1001   1.461   1_556  S
C981        O982   1.272       .  A
O983       C2139   1.274   1_455  A
O983       Zn989   2.020       .  S
C984       O1000   1.277       .  A
C984        O997   1.266       .  A
O985        C998   1.269       .  A
O985       Cd992   2.036       .  S
O986       C1004   1.267       .  A
O986       Cd995   2.024       .  S
O987       C1001   1.288   1_556  A
O987       Cd991   2.127   1_556  S
O988        C999   1.283       .  A
O988      Cd2131   2.154       .  S
Zn989      O1000   2.062       .  S
Zn989      O1002   1.981       .  S
Zn989       O994   1.915       .  S
O990       C1001   1.261       .  A
O990       Cd995   1.993       .  S
Cd991      O2128   2.154   1_455  S
Cd991       O993   2.207   1_554  S
Cd991       O994   1.997       .  S
Cd992       O996   2.044   1_554  S
Cd992      O1005   2.082       .  S
Cd992       O994   1.966       .  S
O993       C1003   1.297       .  A
O994       Cd995   1.956       .  S
Cd995       O997   2.007       .  S
O996       C1003   1.272       .  A
C998       O1002   1.272       .  A
C999       C1138   1.487       .  S
C999       O2123   1.274       .  A
C1004      C1054   1.458       .  S
C1004      O1005   1.276       .  A
O1006      C1022   1.272       .  A
C1007      O1023   1.271       .  A
C1007      O1020   1.269       .  A
O1008     Cd1015   2.014       .  S
O1009      C1027   1.275       .  A
O1009     Cd1018   2.080       .  S
O1010      C1024   1.297       .  A
O1011      C1022   1.284       .  A
O1011     Cd1014   2.155   1_556  S
Zn1012     O1023   1.976       .  S
Zn1012     O1017   1.916       .  S
O1013      C1024   1.271       .  A
O1013     Cd1018   2.044   1_554  S
Cd1014     O1016   2.123       .  S
Cd1015     O1028   2.028       .  S
Cd1015     O1017   1.956       .  S
O1016      C1026   1.287   1_554  A
O1017     Cd1018   1.965       .  S
Cd1018     O1020   2.035       .  S
O1019      C1026   1.262       .  A
C1021      O1025   1.276   1_545  A
C1026      C1050   1.461   1_556  S
C1027      O1028   1.269       .  A
O1029      C1045   1.271       .  A
O1029     Zn1035   1.976       .  S
C1030      O1043   1.284       .  A
O1031      C1044   1.268       .  A
O1031     Cd1038   2.014       .  S
O1032      C1050   1.287   1_556  A
O1032     Cd1041   2.123   1_556  S
O1033      C1047   1.271       .  A
O1033     Cd1037   2.044   1_556  S
O1034      C1045   1.269       .  A
O1034     Cd1037   2.035       .  S
Zn1035     O1046   2.014       .  S
Zn1035     O1048   2.058       .  S
Zn1035     O1040   1.916       .  S
O1036      C1047   1.297       .  A
O1036     Cd1041   2.211   1_556  S
Cd1037     O1039   2.080       .  S
Cd1037     O1040   1.965       .  S
Cd1038     O1042   2.028       .  S
Cd1038     O1051   1.996       .  S
Cd1038     O1040   1.957       .  S
O1039      C1049   1.275       .  A
O1040     Cd1041   1.998       .  S
O1042      C1049   1.269       .  A
C1044      O1048   1.276       .  A
C1045      C1132   1.447       .  S
C1049      C1056   1.458       .  S
C1050      O1051   1.262       .  A
C1052      N1053   1.355       .  A
C1052      N1057   1.358       .  A
C1052      C1101   1.459       .  S
N1053      C1054   1.358       .  A
C1054      N1055   1.354       .  A
N1055      C1056   1.357       .  A
C1056      N1057   1.354       .  A
O1058      C1074   1.273       .  A
O1058     Zn1064   2.017       .  S
C1059      O1075   1.270       .  A
C1059      O1072   1.269       .  A
O1060      C1073   1.267       .  A
O1060     Cd1067   2.011       .  S
O1061      C1079   1.275       .  A
O1061     Cd1070   2.080       .  S
O1062      C1076   1.297       .  A
O1062     Cd1066   2.209       .  S
O1063      C1074   1.283       .  A
O1063     Cd1066   2.155   1_556  S
Zn1064     O1075   1.988       .  S
Zn1064     O1077   2.063       .  S
Zn1064     O1069   1.922       .  S
O1065      C1076   1.274       .  A
O1065     Cd1070   2.054   1_554  S
Cd1066     O1068   2.125       .  S
Cd1066     O1069   1.999   1_554  S
Cd1067     O1071   1.994       .  S
Cd1067     O1080   2.028       .  S
Cd1067     O1069   1.956       .  S
O1068      C1078   1.287   1_554  A
O1069     Cd1070   1.961       .  S
Cd1070     O1072   2.043       .  S
O1071      C1078   1.262       .  A
C1073      O1077   1.277       .  A
C1076      N1134   1.459       .  S
C1078      C1102   1.461   1_556  S
C1079      O1080   1.268       .  A
O1081      C1097   1.270       .  A
O1081     Zn1087   1.988       .  S
C1082      O1098   1.273       .  A
C1082      O1095   1.283       .  A
O1083      C1096   1.267       .  A
O1083     Cd1090   2.011       .  S
O1084      C1102   1.287   1_556  A
O1084     Cd1093   2.125       .  S
O1085      C1099   1.274       .  A
O1085     Cd1089   2.054   1_556  S
O1086      C1097   1.269       .  A
O1086     Cd1089   2.043       .  S
Zn1087     O1098   2.017       .  S
Zn1087     O1100   2.063       .  S
Zn1087     O1092   1.922       .  S
O1088      C1099   1.297       .  A
O1088     Cd1093   2.209       .  S
Cd1089     O1091   2.080       .  S
Cd1089     O1092   1.961       .  S
Cd1090     O1094   2.028       .  S
Cd1090     O1103   1.995       .  S
Cd1090     O1092   1.956       .  S
O1091      C1101   1.275       .  A
O1092     Cd1093   1.999   1_554  S
Cd1093     O1095   2.154   1_556  S
O1094      C1101   1.268       .  A
C1096      O1100   1.277       .  A
C1102      O1103   1.262       .  A
N1104      C1108   1.372       .  A
N1104      C1105   1.369       .  A
C1105      C1127   1.474       .  S
C1105      C1106   1.380       .  A
C1106      C1107   1.358       .  A
C1106      H1109   1.083       .  S
C1107      C1108   1.379       .  A
C1107      H1110   1.081       .  S
O1111      C1127   1.282       .  A
O1111     Zn1117   2.032       .  S
C1112      C1135   1.474       .  S
C1112      O1128   1.282       .  A
C1112      O1125   1.270       .  A
O1113      C1126   1.267       .  A
O1113     Cd1120   2.048       .  S
O1114      C1132   1.273       .  A
O1114     Cd1123   2.057       .  S
O1115      C1129   1.276       .  A
O1115     Cd1119   2.080       .  S
O1116      C1127   1.270       .  A
O1116     Cd1119   2.081       .  S
Zn1117     O1128   2.032       .  S
Zn1117     O1130   2.112       .  S
Zn1117     O1122   1.912       .  S
O1118      C1129   1.276       .  A
O1118     Cd1123   2.080       .  S
Cd1119     O1121   2.057       .  S
Cd1119     O1122   2.032       .  S
Cd1120     O1124   2.017       .  S
Cd1120     O1133   2.017       .  S
Cd1120     O1122   1.975       .  S
O1121      C1131   1.273       .  A
O1122     Cd1123   2.032       .  S
Cd1123     O1125   2.081       .  S
O1124      C1131   1.268       .  A
C1126      O1130   1.282       .  A
C1132      O1133   1.268       .  A
N1134      C1138   1.372       .  A
N1134      C1135   1.369       .  A
C1135      C1136   1.380       .  A
C1136      C1137   1.358       .  A
C1136      H1139   1.083       .  S
C1137      C1138   1.379       .  A
C1137      H1140   1.081       .  S
C1141      N1142   1.360       .  A
C1141      N1146   1.361       .  A
C1141      C1591   1.461       .  S
N1142      C1143   1.353       .  A
C1143      N1144   1.352       .  A
C1143      C1858   1.472       .  S
N1144      C1145   1.360       .  A
C1145      N1146   1.361       .  A
C1145      C1404   1.461       .  S
C1147      N1148   1.360       .  A
C1147      N1152   1.361       .  A
C1147      C1427   1.461       .  S
N1148      C1149   1.353       .  A
C1149      N1150   1.352       .  A
C1149      C1325   1.472       .  S
N1150      C1151   1.360       .  A
C1151      N1152   1.361       .  A
C1151      C1614   1.461       .  S
C1153      N1154   1.360       .  A
C1153      N1158   1.361       .  A
C1153      C1666   1.461       .  S
N1154      C1155   1.353       .  A
C1155      N1156   1.353       .  A
C1155      C1699   1.473       .  S
N1156      C1157   1.360       .  A
C1157      N1158   1.361       .  A
C1157      C1479   1.462       .  S
C1159      N1160   1.361       .  A
C1159      N1164   1.360       .  A
C1159      C1643   1.462       .  S
N1160      C1161   1.361       .  A
C1161      N1162   1.360       .  A
C1161      C1456   1.461       .  S
N1162      C1163   1.353       .  A
C1163      N1164   1.353       .  A
C1163      C1512   1.473       .  S
C1165      N1166   1.360       .  A
C1165      N1170   1.361       .  A
C1165      C1546   1.460       .  S
N1166      C1167   1.351       .  A
C1167      N1168   1.351       .  A
N1168      C1169   1.360       .  A
C1169      N1170   1.361       .  A
C1169      C1344   1.460       .  S
C1171      N1172   1.360       .  A
C1171      N1176   1.361       .  A
C1171      C1554   1.460       .  S
N1172      C1173   1.351       .  A
C1173      N1174   1.351       .  A
C1173      C1211   1.463       .  S
N1174      C1175   1.360       .  A
C1175      N1176   1.361       .  A
C1175      C1382   1.460       .  S
C1177      N1748   1.366       .  A
C1177      N1182   1.369       .  A
C1177      C1322   1.492       .  S
N1178      C1747   1.366   1_545  A
N1178      C1179   1.367       .  A
C1179      C1214   1.484       .  S
N1180      C1181   1.364       .  A
C1181      C1696   1.493       .  S
C1183      N1184   1.366       .  A
C1183      C1285   1.492       .  S
C1185      N1186   1.360       .  A
N1186      C1757   1.364       .  A
C1187      N1756   1.364   1_545  A
C1187      N1188   1.361       .  A
C1187      C1509   1.493       .  S
N1189      C1193   1.370       .  A
N1189      C1190   1.366       .  A
N1189      C1551   1.457       .  S
C1190      C1212   1.472       .  S
C1190      C1191   1.380       .  A
C1191      C1192   1.361       .  A
C1191      H1194   1.083       .  S
C1192      C1193   1.379       .  A
C1192      H1195   1.080       .  S
C1193      C1600   1.487       .  S
O1196      C1212   1.278       .  A
C1197      C1220   1.472       .  S
C1197      O1213   1.278       .  A
O1198      C1211   1.273       .  A
O1198     Cd1205   2.082       .  S
O1199      C1217   1.267       .  A
O1199     Cd1208   2.024       .  S
O1200      C1214   1.278       .  A
O1200     Cd1204   2.104       .  S
O1201     Cd1204   2.084       .  S
Zn1202     O1215   2.008       .  S
Zn1202     O1207   1.932       .  S
O1203      C1214   1.278       .  A
O1203     Cd1208   2.104       .  S
Cd1204     O1206   2.024       .  S
Cd1204     O1207   2.011       .  S
Cd1205     O1209   2.067       .  S
Cd1205     O1218   2.068       .  S
Cd1205     O1207   2.000       .  S
O1206      C1216   1.267       .  A
O1207     Cd1208   2.011       .  S
Cd1208     O1210   2.084       .  S
O1209      C1216   1.274       .  A
C1211      O1215   1.269       .  A
C1216      C1667   1.441       .  S
C1217      C1465   1.441       .  S
C1217      O1218   1.274       .  A
N1219      C1223   1.370       .  A
N1219      C1220   1.366       .  A
N1219      C1363   1.457       .  S
C1220      C1221   1.380       .  A
C1221      C1222   1.361       .  A
C1221      H1224   1.083       .  S
C1222      C1223   1.379       .  A
C1222      H1225   1.080       .  S
C1223      C1428   1.487       .  S
N1226      C1230   1.370       .  A
N1226      C1227   1.366       .  A
N1226      C1387   1.457       .  S
C1227      C1249   1.472       .  S
C1227      C1228   1.380       .  A
C1228      C1229   1.361       .  A
C1228      H1231   1.083       .  S
C1229      C1230   1.379       .  A
C1229      H1232   1.080       .  S
C1230      C1390   1.487       .  S
O1233      C1249   1.278       .  A
O1233     Zn1239   2.027       .  S
C1234      C1257   1.472       .  S
C1234      O1250   1.278       .  A
C1234      O1247   1.275       .  A
O1235      C1248   1.273   1_655  A
O1235     Cd1242   2.082       .  S
O1236      C1254   1.267       .  A
O1236     Cd1245   2.024   1_655  S
O1237      C1251   1.278       .  A
O1237     Cd1241   2.104       .  S
O1238      C1249   1.275       .  A
Zn1239     O1250   2.027       .  S
Zn1239     O1252   2.008       .  S
O1240      C1251   1.278       .  A
O1240     Cd1245   2.104       .  S
Cd1241     O1243   2.024   1_455  S
Cd1241     O1244   2.011       .  S
Cd1242     O1246   2.067       .  S
Cd1242     O1255   2.068       .  S
Cd1242     O1244   2.000   1_655  S
O1243      C1253   1.267       .  A
O1244     Cd1245   2.011       .  S
O1246      C1253   1.274       .  A
C1253      C1457   1.441       .  S
C1254      C1629   1.441       .  S
C1254      O1255   1.274       .  A
N1256      C1260   1.370       .  A
N1256      C1257   1.366       .  A
N1256      C1573   1.457       .  S
C1257      C1258   1.380       .  A
C1258      C1259   1.361       .  A
C1258      H1261   1.083       .  S
C1259      C1260   1.379       .  A
C1259      H1262   1.080       .  S
C1260      C1592   1.487       .  S
N1263      C1267   1.368       .  A
N1263      C1264   1.372       .  A
N1263      C1430   1.458       .  S
C1264      C1442   1.487       .  S
C1264      C1265   1.379       .  A
C1265      C1266   1.359       .  A
C1265      H1268   1.078       .  S
C1266      C1267   1.380       .  A
C1266      H1269   1.083       .  S
C1267      C1271   1.473       .  S
O1270      C1286   1.282       .  A
O1270     Zn1276   2.032       .  S
C1271      O1287   1.282       .  A
C1271      O1284   1.269       .  A
O1272      C1855   1.267   1_545  A
O1272     Cd1279   2.046       .  S
O1273      C1291   1.273       .  A
O1273     Cd1282   2.057   1_545  S
O1274      C1288   1.276       .  A
O1274     Cd1278   2.077       .  S
O1275      C1286   1.269       .  A
O1275     Cd1848   2.078       .  S
Zn1276     O1287   2.032       .  S
Zn1276     O1289   2.113       .  S
Zn1276     O1851   1.912       .  S
O1277      C1288   1.276       .  A
O1277     Cd1282   2.078       .  S
Cd1278     O1845   2.078       .  S
Cd1278     O1280   2.057   1_565  S
Cd1278     O1281   2.029       .  S
Cd1279     O1283   2.018       .  S
Cd1279     O1292   2.018       .  S
Cd1279     O1281   1.975   1_545  S
O1280      C1290   1.273       .  A
O1281     Zn1846   1.912       .  S
O1281     Cd1282   2.029       .  S
Cd1282     O1854   2.078       .  S
O1283      C1290   1.268       .  A
O1284     Cd1852   2.078       .  S
C1285      O1842   1.267       .  A
C1285      O1289   1.282       .  A
C1286      C1297   1.473       .  S
C1288      C1713   1.472       .  S
C1290      C1545   1.448       .  S
C1291      C1358   1.448       .  S
C1291      O1292   1.268       .  A
N1293      C1297   1.368       .  A
N1293      C1294   1.372       .  A
N1293      C1617   1.458       .  S
C1294      C1644   1.487       .  S
C1294      C1295   1.379       .  A
C1295      C1296   1.359       .  A
C1295      H1298   1.079       .  S
C1296      C1297   1.380       .  A
C1296      H1299   1.083       .  S
N1300      C1304   1.368       .  A
N1300      C1301   1.372       .  A
N1300      C1594   1.458       .  S
C1301      C1652   1.487       .  S
C1301      C1302   1.379       .  A
C1302      C1303   1.359       .  A
C1302      H1305   1.078       .  S
C1303      C1304   1.380       .  A
C1303      H1306   1.083       .  S
C1304      C1308   1.473       .  S
O1307      C1323   1.282       .  A
O1307     Zn1883   2.032       .  S
C1308      O1324   1.282       .  A
C1308      O1891   1.269       .  A
O1309      C1322   1.267       .  A
O1309     Cd1316   2.046       .  S
O1310      C1328   1.273       .  A
O1310     Cd1319   2.057       .  S
O1311      C1325   1.276       .  A
O1311     Cd1315   2.077       .  S
O1312      C1893   1.269       .  A
O1312     Cd1315   2.078       .  S
Zn1313     O1877   2.032       .  S
Zn1313     O1894   2.032       .  S
Zn1313     O1326   2.113       .  S
Zn1313     O1318   1.912       .  S
O1314      C1325   1.276       .  A
O1314     Cd1319   2.077       .  S
Cd1315     O1317   2.057       .  S
Cd1315     O1318   2.030       .  S
Cd1316     O1320   2.018       .  S
Cd1316     O1329   2.018       .  S
Cd1316     O1318   1.975       .  S
O1317      C1327   1.273       .  A
O1318     Cd1319   2.030       .  S
Cd1319     O1321   2.078       .  S
O1320      C1327   1.268       .  A
O1321      C1878   1.269       .  A
C1322      O1326   1.282       .  A
C1323      C1334   1.473       .  S
C1323      O1882   1.269       .  A
O1324     Zn1883   2.032       .  S
C1327      C1381   1.448       .  S
C1328      C1568   1.448       .  S
C1328      O1329   1.268       .  A
N1330      C1334   1.368       .  A
N1330      C1331   1.372       .  A
N1330      C1407   1.458       .  S
C1331      C1480   1.487       .  S
C1331      C1332   1.379       .  A
C1332      C1333   1.359       .  A
C1332      H1335   1.079       .  S
C1333      C1334   1.380       .  A
C1333      H1336   1.083       .  S
C1337      N1338   1.358       .  A
C1337      N1342   1.355       .  A
C1337      C1461   1.459       .  S
N1338      C1339   1.354       .  A
C1339      N1340   1.357       .  A
C1339      C1409   1.458       .  S
N1340      C1341   1.354       .  A
C1341      N1342   1.358       .  A
C1341      C1364   1.458       .  S
O1343      C1359   1.274       .  A
C1344      O1360   1.277       .  A
O1345      C1358   1.269       .  A
O1345     Cd1352   2.036       .  S
O1346      C1364   1.267       .  A
O1346     Cd1355   2.024       .  S
O1347      C1361   1.288       .  A
O1347     Cd1351   2.127       .  S
O1348      C1359   1.283       .  A
O1348     Cd1351   2.154       .  S
Zn1349     O1362   1.981       .  S
Zn1349     O1354   1.915       .  S
O1350      C1361   1.261       .  A
Cd1352     O1356   2.044       .  S
Cd1352     O1365   2.082       .  S
Cd1352     O1354   1.966       .  S
O1353      C1363   1.297       .  A
O1354     Cd1355   1.956       .  S
Cd1355     O1357   2.007       .  S
O1356      C1363   1.272       .  A
C1358      O1362   1.272       .  A
C1359      C1491   1.487       .  S
C1361      C1384   1.461       .  S
C1364      O1365   1.276       .  A
O1366      C1382   1.277       .  A
O1366     Zn1372   2.062       .  S
C1367      C1678   1.487       .  S
C1367      O1380   1.283       .  A
O1368      C1381   1.269       .  A
O1368     Cd1375   2.036       .  S
O1369      C1387   1.297       .  A
O1369     Cd1378   2.207       .  S
O1370      C1384   1.261       .  A
O1370     Cd1374   1.994       .  S
O1371      C1382   1.266       .  A
O1371     Cd1374   2.007       .  S
Zn1372     O1383   2.020       .  S
Zn1372     O1385   1.981       .  S
Zn1372     O1377   1.915       .  S
O1373      C1384   1.288       .  A
O1373     Cd1378   2.127       .  S
Cd1374     O1376   2.024       .  S
Cd1374     O1377   1.956       .  S
Cd1375     O1379   2.082       .  S
Cd1375     O1388   2.044       .  S
Cd1375     O1377   1.966       .  S
O1376      C1386   1.267       .  A
O1377     Cd1378   1.997       .  S
O1379      C1386   1.276       .  A
C1381      O1385   1.272       .  A
C1386      C1437   1.458       .  S
C1387      O1388   1.272       .  A
O1389      C1405   1.271       .  A
O1389     Zn1395   1.976       .  S
C1390      O1406   1.272       .  A
C1390      O1403   1.284       .  A
O1391      C1974   1.268       .  A
O1391     Cd1398   2.014       .  S
O1392      C1410   1.287       .  A
O1392     Cd1401   2.123       .  S
O1393      C1407   1.271       .  A
O1393     Cd1397   2.044       .  S
O1394      C1405   1.269       .  A
O1394     Cd1397   2.035       .  S
Zn1395     O1976   2.014   1_545  S
Zn1395     O1978   2.058   1_545  S
Zn1395     O1400   1.916       .  S
O1396      C1407   1.297       .  A
O1396     Cd1971   2.211   1_545  S
Cd1397     O1399   2.080       .  S
Cd1397     O1400   1.965       .  S
Cd1398     O1402   2.028       .  S
Cd1398     O1981   1.996   1_545  S
Cd1398     O1400   1.957       .  S
O1399      C1409   1.275       .  A
O1400     Cd1971   1.998   1_545  S
Cd1401     O1966   2.211       .  S
Cd1401     O1403   2.156       .  S
Cd1401     O1970   1.998       .  S
O1402      C1409   1.269       .  A
C1404      O1961   1.268       .  A
C1404      O1408   1.276       .  A
C1405      C1515   1.447       .  S
O1406     Zn1965   2.014       .  S
O1408     Zn1965   2.058       .  S
C1410      C1432   1.461       .  S
C1410      O1411   1.262       .  A
O1411     Cd1968   1.996       .  S
O1412      C1998   1.272       .  A
O1412     Zn1418   2.014       .  S
C1413      C1701   1.447       .  S
C1413      O1429   1.271       .  A
C1413      O1426   1.269       .  A
O1414      C1427   1.268       .  A
O1414     Cd1421   2.014       .  S
O1415      C1433   1.275       .  A
O1415     Cd1424   2.080       .  S
O1416      C1430   1.297       .  A
O1416     Cd1420   2.211       .  S
O1417      C1428   1.284       .  A
O1417     Cd1990   2.155   1_545  S
Zn1418     O1429   1.976       .  S
Zn1418     O1431   2.058       .  S
Zn1418     O1423   1.916       .  S
O1419      C1430   1.271       .  A
O1419     Cd1424   2.044       .  S
Cd1420     O1987   2.155       .  S
Cd1420     O1422   2.123       .  S
Cd1420     O1423   1.998       .  S
Cd1421     O1425   1.996       .  S
Cd1421     O1434   2.028       .  S
Cd1421     O1423   1.957       .  S
O1422      C1432   1.287       .  A
O1423     Cd1424   1.965       .  S
Cd1424     O1426   2.035       .  S
O1425      C1432   1.262       .  A
C1427      O1431   1.276       .  A
C1428      O1982   1.272   1_545  A
C1433      C1439   1.458       .  S
C1433      O1434   1.269       .  A
C1435      N1436   1.355       .  A
C1435      N1440   1.358       .  A
C1435      C1485   1.459       .  S
N1436      C1437   1.358       .  A
C1437      N1438   1.354       .  A
N1438      C1439   1.357       .  A
C1439      N1440   1.354       .  A
O1441      C1457   1.270       .  A
O1441     Zn1447   1.988       .  S
C1442      O1458   1.273       .  A
C1442      O1455   1.283       .  A
O1443      C1456   1.267       .  A
O1443     Cd1450   2.011       .  S
O1444      C1462   1.287       .  A
O1444     Cd1453   2.125       .  S
O1445      C1459   1.274       .  A
O1445     Cd1449   2.054       .  S
O1446      C1457   1.269       .  A
O1446     Cd1449   2.043       .  S
Zn1447     O1458   2.017       .  S
Zn1447     O1460   2.063       .  S
Zn1447     O1452   1.922       .  S
O1448      C1459   1.297       .  A
O1448     Cd1453   2.209       .  S
Cd1449     O1451   2.080       .  S
Cd1449     O1452   1.961       .  S
Cd1450     O1454   2.028       .  S
Cd1450     O1463   1.995       .  S
Cd1450     O1452   1.956       .  S
O1451      C1461   1.275       .  A
O1452     Cd1453   1.999       .  S
Cd1453     O1455   2.154       .  S
O1454      C1461   1.268       .  A
C1456      O1460   1.277       .  A
C1459      N1674   1.459       .  S
C1462      C1484   1.461       .  S
C1462      O1463   1.262       .  A
O1464      C1480   1.273       .  A
O1464     Zn1470   2.017       .  S
C1465      O1481   1.270       .  A
C1465      O1478   1.269       .  A
O1466      C1479   1.267       .  A
O1466     Cd1473   2.011       .  S
O1467      C1485   1.275       .  A
O1467     Cd1476   2.080       .  S
O1468      C1482   1.297       .  A
O1468     Cd1472   2.209       .  S
O1469      C1480   1.283       .  A
O1469     Cd1472   2.154       .  S
Zn1470     O1481   1.988       .  S
Zn1470     O1483   2.064       .  S
Zn1470     O1475   1.922       .  S
O1471      C1482   1.274       .  A
O1471     Cd1476   2.054       .  S
Cd1472     O1474   2.125       .  S
Cd1472     O1475   1.999       .  S
Cd1473     O1477   1.994       .  S
Cd1473     O1486   2.028       .  S
Cd1473     O1475   1.956       .  S
O1474      C1484   1.287       .  A
O1475     Cd1476   1.961       .  S
Cd1476     O1478   2.043       .  S
O1477      C1484   1.262       .  A
C1479      O1483   1.277       .  A
C1482      N1487   1.459       .  S
C1485      O1486   1.268       .  A
N1487      C1491   1.372       .  A
N1487      C1488   1.369       .  A
C1488      C1495   1.474       .  S
C1488      C1489   1.380       .  A
C1489      C1490   1.358       .  A
C1489      H1492   1.083       .  S
C1490      C1491   1.379       .  A
C1490      H1493   1.081       .  S
O1494      C1510   1.282       .  A
O1494     Zn1500   2.032       .  S
C1495      O1511   1.282       .  A
C1495      O1508   1.270       .  A
O1496      C1509   1.267       .  A
O1496     Cd1503   2.048       .  S
O1497      C1515   1.273       .  A
O1497     Cd1506   2.057       .  S
O1498      C1512   1.276       .  A
O1498     Cd1502   2.080       .  S
O1499      C1510   1.270       .  A
O1499     Cd1502   2.081       .  S
Zn1500     O1511   2.032       .  S
Zn1500     O1513   2.111       .  S
Zn1500     O1505   1.912       .  S
O1501      C1512   1.276       .  A
O1501     Cd1506   2.080       .  S
Cd1502     O1504   2.057       .  S
Cd1502     O1505   2.032       .  S
Cd1503     O1507   2.017       .  S
Cd1503     O1516   2.017       .  S
Cd1503     O1505   1.975       .  S
O1504      C1514   1.273       .  A
O1505     Cd1506   2.032       .  S
Cd1506     O1508   2.081       .  S
O1507      C1514   1.268       .  A
C1509      O1513   1.282       .  A
C1510      C1518   1.474       .  S
C1514      C1577   1.447       .  S
C1515      O1516   1.268       .  A
N1517      C1521   1.372       .  A
N1517      C1518   1.369       .  A
N1517      C1669   1.459       .  S
C1518      C1519   1.380       .  A
C1519      C1520   1.358       .  A
C1519      H1522   1.083       .  S
C1520      C1521   1.379       .  A
C1520      H1523   1.081       .  S
C1521      C1531   1.487       .  S
C1524      N1525   1.358       .  A
C1524      N1529   1.355       .  A
C1524      C1649   1.459       .  S
N1525      C1526   1.354       .  A
C1526      N1527   1.357       .  A
C1526      C1597   1.458       .  S
N1527      C1528   1.354       .  A
C1528      N1529   1.358       .  A
C1528      C1550   1.458       .  S
O1530      C1546   1.277       .  A
C1531      O1547   1.274       .  A
C1531      O1544   1.283       .  A
O1532      C1545   1.269       .  A
O1532     Cd1539   2.036       .  S
O1533      C1551   1.297       .  A
O1534      C1548   1.261       .  A
O1535     Cd1538   2.007       .  S
Zn1536     O1549   1.981       .  S
Zn1536     O1541   1.915       .  S
O1537      C1548   1.288   1_554  A
O1537     Cd1542   2.127       .  S
Cd1538     O1540   2.024       .  S
Cd1538     O1541   1.956       .  S
Cd1539     O1543   2.082       .  S
Cd1539     O1552   2.044   1_556  S
Cd1539     O1541   1.966       .  S
O1540      C1550   1.267       .  A
Cd1542     O1544   2.154   1_554  S
O1543      C1550   1.276       .  A
C1545      O1549   1.272       .  A
C1548      C1571   1.461   1_556  S
C1551      O1552   1.272       .  A
O1553     Zn1559   2.020       .  S
C1554      O1570   1.277       .  A
C1554      O1567   1.266       .  A
O1555      C1568   1.269       .  A
O1555     Cd1562   2.036       .  S
O1556      C1574   1.267       .  A
O1556     Cd1565   2.024       .  S
O1557      C1571   1.288   1_556  A
O1557     Cd1561   2.127   1_556  S
O1558      C1569   1.283       .  A
Zn1559     O1570   2.062       .  S
Zn1559     O1572   1.981       .  S
Zn1559     O1564   1.915       .  S
O1560      C1571   1.261       .  A
O1560     Cd1565   1.993       .  S
Cd1561     O1563   2.207   1_554  S
Cd1561     O1564   1.997       .  S
Cd1562     O1566   2.044   1_554  S
Cd1562     O1575   2.082       .  S
Cd1562     O1564   1.966       .  S
O1563      C1573   1.297       .  A
O1564     Cd1565   1.956       .  S
Cd1565     O1567   2.007       .  S
O1566      C1573   1.272       .  A
C1568      O1572   1.272       .  A
C1569      C1708   1.487       .  S
C1574      C1624   1.458       .  S
C1574      O1575   1.276       .  A
O1576      C1592   1.272       .  A
O1576     Zn2152   2.014       .  S
C1577      O1593   1.271       .  A
C1577      O1590   1.269       .  A
O1578      C2161   1.268       .  A
O1578     Cd1585   2.014       .  S
O1579      C1597   1.275       .  A
O1579     Cd1588   2.080       .  S
O1580      C1594   1.297       .  A
O1580     Cd2154   2.211   1_545  S
O1581      C1592   1.284       .  A
O1581     Cd1584   2.155   1_556  S
Zn1582     O2146   2.014   1_545  S
Zn1582     O1593   1.976       .  S
Zn1582     O2165   2.058   1_545  S
Zn1582     O1587   1.916       .  S
O1583      C1594   1.271       .  A
O1583     Cd1588   2.044   1_554  S
Cd1584     O2150   2.211       .  S
Cd1584     O1586   2.123       .  S
Cd1584     O2157   1.998   1_554  S
Cd1585     O2159   1.996   1_545  S
Cd1585     O1598   2.028       .  S
Cd1585     O1587   1.957       .  S
O1586      C1596   1.287   1_554  A
O1587     Cd2154   1.998   1_546  S
O1587     Cd1588   1.965       .  S
Cd1588     O1590   2.035       .  S
O1589      C1596   1.262       .  A
O1589     Cd2155   1.996       .  S
C1591      O2148   1.268       .  A
C1591      O1595   1.276       .  A
O1595     Zn2152   2.058       .  S
C1596      C1620   1.461   1_556  S
C1597      O1598   1.269       .  A
O1599      C1615   1.271       .  A
O1599     Zn1605   1.976       .  S
C1600      O2186   1.272   1_545  A
C1600      O1613   1.284       .  A
O1601      C1614   1.268       .  A
O1601     Cd1608   2.014       .  S
O1602      C1620   1.287   1_556  A
O1602     Cd1611   2.123   1_556  S
O1603      C1617   1.271       .  A
O1603     Cd1607   2.044   1_556  S
O1604      C1615   1.269       .  A
O1604     Cd1607   2.035       .  S
Zn1605     O1616   2.014       .  S
Zn1605     O1618   2.058       .  S
Zn1605     O1610   1.916       .  S
O1606      C1617   1.297       .  A
O1606     Cd1611   2.211   1_556  S
Cd1607     O1609   2.080       .  S
Cd1607     O1610   1.965       .  S
Cd1608     O1612   2.029       .  S
Cd1608     O1621   1.996       .  S
Cd1608     O1610   1.957       .  S
O1609      C1619   1.275       .  A
O1610     Cd1611   1.998       .  S
Cd1611     O2183   2.155       .  S
O1612      C1619   1.269       .  A
O1613     Cd2181   2.155   1_545  S
C1614      O1618   1.276       .  A
C1615      C1702   1.447       .  S
O1616      C2170   1.272       .  A
C1619      C1626   1.458       .  S
C1620      O1621   1.262       .  A
C1622      N1623   1.355       .  A
C1622      N1627   1.358       .  A
C1622      C1671   1.459       .  S
N1623      C1624   1.358       .  A
C1624      N1625   1.354       .  A
N1625      C1626   1.357       .  A
C1626      N1627   1.354       .  A
O1628      C1644   1.273       .  A
O1628     Zn1634   2.017       .  S
C1629      O1645   1.270       .  A
C1629      O1642   1.269       .  A
O1630      C1643   1.267       .  A
O1630     Cd1637   2.011       .  S
O1631      C1649   1.275       .  A
O1631     Cd1640   2.081       .  S
O1632      C1646   1.297       .  A
O1632     Cd1636   2.209       .  S
O1633      C1644   1.283       .  A
O1633     Cd1636   2.154   1_556  S
Zn1634     O1645   1.988       .  S
Zn1634     O1647   2.063       .  S
Zn1634     O1639   1.922       .  S
O1635      C1646   1.274       .  A
O1635     Cd1640   2.054   1_554  S
Cd1636     O1638   2.125       .  S
Cd1636     O1639   1.999   1_554  S
Cd1637     O1641   1.994       .  S
Cd1637     O1650   2.028       .  S
Cd1637     O1639   1.956       .  S
O1638      C1648   1.287   1_554  A
O1639     Cd1640   1.961       .  S
Cd1640     O1642   2.043       .  S
O1641      C1648   1.262       .  A
C1643      O1647   1.277       .  A
C1646      N1704   1.459       .  S
C1648      C1672   1.461   1_556  S
C1649      O1650   1.268       .  A
O1651      C1667   1.270       .  A
O1651     Zn1657   1.988       .  S
C1652      O1668   1.273       .  A
C1652      O1665   1.283       .  A
O1653      C1666   1.267       .  A
O1653     Cd1660   2.011       .  S
O1654      C1672   1.287   1_556  A
O1654     Cd1663   2.125       .  S
O1655      C1669   1.274       .  A
O1655     Cd1659   2.054   1_556  S
O1656      C1667   1.269       .  A
O1656     Cd1659   2.043       .  S
Zn1657     O1668   2.017       .  S
Zn1657     O1670   2.063       .  S
Zn1657     O1662   1.922       .  S
O1658      C1669   1.297       .  A
O1658     Cd1663   2.209       .  S
Cd1659     O1661   2.080       .  S
Cd1659     O1662   1.961       .  S
Cd1660     O1664   2.028       .  S
Cd1660     O1673   1.995       .  S
Cd1660     O1662   1.956       .  S
O1661      C1671   1.275       .  A
O1662     Cd1663   1.999   1_554  S
Cd1663     O1665   2.154   1_556  S
O1664      C1671   1.268       .  A
C1666      O1670   1.277       .  A
C1672      O1673   1.262       .  A
N1674      C1678   1.372       .  A
N1674      C1675   1.369       .  A
C1675      C1697   1.474       .  S
C1675      C1676   1.380       .  A
C1676      C1677   1.358       .  A
C1676      H1679   1.083       .  S
C1677      C1678   1.379       .  A
C1677      H1680   1.081       .  S
O1681      C1697   1.282       .  A
O1681     Zn1687   2.032       .  S
C1682      C1705   1.474       .  S
C1682      O1698   1.282       .  A
C1682      O1695   1.270       .  A
O1683      C1696   1.267       .  A
O1683     Cd1690   2.048       .  S
O1684      C1702   1.273       .  A
O1684     Cd1693   2.057       .  S
O1685      C1699   1.276       .  A
O1685     Cd1689   2.080       .  S
O1686      C1697   1.270       .  A
O1686     Cd1689   2.081       .  S
Zn1687     O1698   2.031       .  S
Zn1687     O1700   2.112       .  S
Zn1687     O1692   1.912       .  S
O1688      C1699   1.276       .  A
O1688     Cd1693   2.080       .  S
Cd1689     O1691   2.057       .  S
Cd1689     O1692   2.032       .  S
Cd1690     O1694   2.017       .  S
Cd1690     O1703   2.017       .  S
Cd1690     O1692   1.975       .  S
O1691      C1701   1.273       .  A
O1692     Cd1693   2.032       .  S
Cd1693     O1695   2.081       .  S
O1694      C1701   1.268       .  A
C1696      O1700   1.282       .  A
C1702      O1703   1.268       .  A
N1704      C1708   1.372       .  A
N1704      C1705   1.369       .  A
C1705      C1706   1.380       .  A
C1706      C1707   1.358       .  A
C1706      H1709   1.083       .  S
C1707      C1708   1.379       .  A
C1707      H1710   1.081       .  S
C1711      N1712   1.360       .  A
C1711      N1716   1.361       .  A
C1711      C2161   1.461   1_565  S
N1712      C1713   1.353       .  A
C1713      N1714   1.352       .  A
N1714      C1715   1.360       .  A
C1715      N1716   1.361       .  A
C1715      C1974   1.461   1_565  S
C1717      N1718   1.360       .  A
C1717      N1722   1.361       .  A
C1717      C1997   1.461       .  S
N1718      C1719   1.353       .  A
C1719      N1720   1.353       .  A
C1719      C1895   1.472       .  S
N1720      C1721   1.360       .  A
C1721      N1722   1.361       .  A
C1721      C2184   1.461       .  S
C1723      N1724   1.360       .  A
C1723      N1728   1.361       .  A
C1723      C2236   1.461       .  S
N1724      C1725   1.353       .  A
C1725      N1726   1.353       .  A
C1725      C2269   1.473       .  S
N1726      C1727   1.360       .  A
C1727      N1728   1.361       .  A
C1727      C2049   1.462       .  S
C1729      N1730   1.361       .  A
C1729      N1734   1.360       .  A
C1729      C2213   1.462       .  S
N1730      C1731   1.361       .  A
C1731      N1732   1.360       .  A
C1731      C2026   1.461       .  S
N1732      C1733   1.353       .  A
C1733      N1734   1.353       .  A
C1733      C2082   1.473       .  S
C1735      N1736   1.360       .  A
C1735      N1740   1.361       .  A
C1735      C2116   1.460       .  S
N1736      C1737   1.351       .  A
C1737      N1738   1.351       .  A
N1738      C1739   1.360       .  A
C1739      N1740   1.361       .  A
C1739      C1914   1.460       .  S
C1741      N1742   1.360       .  A
C1741      N1746   1.361       .  A
C1741      C2124   1.460       .  S
N1742      C1743   1.351       .  A
C1743      N1744   1.351       .  A
C1743      C1781   1.463       .  S
N1744      C1745   1.360       .  A
C1745      N1746   1.361       .  A
C1745      C1952   1.460       .  S
C1747      N1752   1.369       .  A
C1747      C1892   1.492       .  S
N1748      C1749   1.367       .  A
C1749      C1784   1.484       .  S
N1750      C1751   1.364       .  A
C1751      C2266   1.493       .  S
C1753      N1754   1.366       .  A
C1753      C1855   1.492       .  S
C1755      N1756   1.360       .  A
C1757      N1758   1.361       .  A
C1757      C2079   1.493       .  S
N1759      C1763   1.370       .  A
N1759      C1760   1.366       .  A
N1759      C2121   1.457       .  S
C1760      C1782   1.472       .  S
C1760      C1761   1.380       .  A
C1761      C1762   1.361       .  A
C1761      H1764   1.083       .  S
C1762      C1763   1.379       .  A
C1762      H1765   1.080       .  S
C1763      C2170   1.487       .  S
O1766      C1782   1.278       .  A
C1767      C1790   1.472       .  S
C1767      O1783   1.278       .  A
O1768      C1781   1.273       .  A
O1768     Cd1775   2.082       .  S
O1769      C1787   1.267       .  A
O1769     Cd1778   2.024       .  S
O1770      C1784   1.278       .  A
O1770     Cd1774   2.104       .  S
O1771     Cd1774   2.084       .  S
Zn1772     O1785   2.008       .  S
Zn1772     O1777   1.932       .  S
O1773      C1784   1.278       .  A
O1773     Cd1778   2.104       .  S
Cd1774     O1776   2.024       .  S
Cd1774     O1777   2.011       .  S
Cd1775     O1779   2.067       .  S
Cd1775     O1788   2.068       .  S
Cd1775     O1777   2.000       .  S
O1776      C1786   1.267       .  A
O1777     Cd1778   2.011       .  S
Cd1778     O1780   2.084       .  S
O1779      C1786   1.274       .  A
C1781      O1785   1.269       .  A
C1786      C2237   1.441       .  S
C1787      C2035   1.441       .  S
C1787      O1788   1.274       .  A
N1789      C1793   1.370       .  A
N1789      C1790   1.366       .  A
N1789      C1933   1.457       .  S
C1790      C1791   1.380       .  A
C1791      C1792   1.361       .  A
C1791      H1794   1.083       .  S
C1792      C1793   1.379       .  A
C1792      H1795   1.080       .  S
C1793      C1998   1.487       .  S
N1796      C1800   1.370       .  A
N1796      C1797   1.366       .  A
N1796      C1957   1.457       .  S
C1797      C1819   1.472       .  S
C1797      C1798   1.380       .  A
C1798      C1799   1.361       .  A
C1798      H1801   1.083       .  S
C1799      C1800   1.379       .  A
C1799      H1802   1.080       .  S
C1800      C1960   1.487       .  S
O1803      C1819   1.278       .  A
O1803     Zn1809   2.027       .  S
C1804      C1827   1.472       .  S
C1804      O1820   1.278       .  A
C1804      O1817   1.275       .  A
O1805      C1818   1.273   1_655  A
O1805     Cd1812   2.082       .  S
O1806      C1824   1.267       .  A
O1806     Cd1815   2.024   1_655  S
O1807      C1821   1.278       .  A
O1807     Cd1811   2.104       .  S
O1808      C1819   1.275       .  A
Zn1809     O1820   2.027       .  S
Zn1809     O1822   2.008       .  S
O1810      C1821   1.278       .  A
O1810     Cd1815   2.104       .  S
Cd1811     O1813   2.024   1_455  S
Cd1811     O1814   2.011       .  S
Cd1812     O1816   2.067       .  S
Cd1812     O1825   2.068       .  S
Cd1812     O1814   2.000   1_655  S
O1813      C1823   1.267       .  A
O1814     Cd1815   2.011       .  S
O1816      C1823   1.274       .  A
C1823      C2027   1.441       .  S
C1824      C2199   1.441       .  S
C1824      O1825   1.274       .  A
N1826      C1830   1.370       .  A
N1826      C1827   1.366       .  A
N1826      C2143   1.457       .  S
C1827      C1828   1.380       .  A
C1828      C1829   1.361       .  A
C1828      H1831   1.083       .  S
C1829      C1830   1.379       .  A
C1829      H1832   1.080       .  S
C1830      C2162   1.487       .  S
N1833      C1837   1.368       .  A
N1833      C1834   1.372       .  A
N1833      C2000   1.458       .  S
C1834      C2012   1.487       .  S
C1834      C1835   1.379       .  A
C1835      C1836   1.359       .  A
C1835      H1838   1.078       .  S
C1836      C1837   1.380       .  A
C1836      H1839   1.083       .  S
C1837      C1841   1.473       .  S
O1840      C1856   1.282       .  A
O1840     Zn1846   2.032       .  S
C1841      O1857   1.282       .  A
C1841      O1854   1.269       .  A
O1842     Cd1849   2.045       .  S
O1843      C1861   1.273       .  A
O1843     Cd1852   2.057       .  S
O1844      C1858   1.276       .  A
O1844     Cd1848   2.077       .  S
O1845      C1856   1.269       .  A
Zn1846     O1857   2.032       .  S
Zn1846     O1859   2.113       .  S
O1847      C1858   1.276       .  A
O1847     Cd1852   2.078       .  S
Cd1848     O1850   2.057       .  S
Cd1848     O1851   2.029       .  S
Cd1849     O1853   2.018       .  S
Cd1849     O1862   2.018       .  S
Cd1849     O1851   1.975       .  S
O1850      C1860   1.273       .  A
O1851     Cd1852   2.029       .  S
O1853      C1860   1.268       .  A
C1855      O1859   1.282       .  A
C1856      C1867   1.473       .  S
C1860      C2115   1.448       .  S
C1861      C1928   1.448       .  S
C1861      O1862   1.268       .  A
N1863      C1867   1.368       .  A
N1863      C1864   1.372       .  A
N1863      C2187   1.458       .  S
C1864      C2214   1.487       .  S
C1864      C1865   1.379       .  A
C1865      C1866   1.359       .  A
C1865      H1868   1.079       .  S
C1866      C1867   1.380       .  A
C1866      H1869   1.083       .  S
N1870      C1874   1.368       .  A
N1870      C1871   1.372       .  A
N1870      C2164   1.458       .  S
C1871      C2222   1.487       .  S
C1871      C1872   1.379       .  A
C1872      C1873   1.359       .  A
C1872      H1875   1.078       .  S
C1873      C1874   1.380       .  A
C1873      H1876   1.083       .  S
C1874      C1878   1.473       .  S
O1877      C1893   1.282       .  A
C1878      O1894   1.282       .  A
O1879      C1892   1.267       .  A
O1879     Cd1886   2.045       .  S
O1880      C1898   1.273       .  A
O1880     Cd1889   2.057       .  S
O1881      C1895   1.276       .  A
O1881     Cd1885   2.077       .  S
O1882     Cd1885   2.078   1_545  S
Zn1883     O1896   2.113       .  S
Zn1883     O1888   1.912   1_545  S
O1884      C1895   1.276       .  A
O1884     Cd1889   2.077       .  S
Cd1885     O1887   2.057       .  S
Cd1885     O1888   2.029       .  S
Cd1886     O1890   2.018       .  S
Cd1886     O1899   2.018       .  S
Cd1886     O1888   1.975       .  S
O1887      C1897   1.273       .  A
O1888     Cd1889   2.029       .  S
Cd1889     O1891   2.078   1_565  S
O1890      C1897   1.268       .  A
C1892      O1896   1.282   1_565  A
C1893      C1904   1.473       .  S
C1897      C1951   1.448       .  S
C1898      C2138   1.448       .  S
C1898      O1899   1.268       .  A
N1900      C1904   1.368       .  A
N1900      C1901   1.372       .  A
N1900      C1977   1.458       .  S
C1901      C2050   1.487       .  S
C1901      C1902   1.379       .  A
C1902      C1903   1.359       .  A
C1902      H1905   1.079       .  S
C1903      C1904   1.380       .  A
C1903      H1906   1.083       .  S
C1907      N1908   1.358       .  A
C1907      N1912   1.355       .  A
C1907      C2031   1.459       .  S
N1908      C1909   1.354       .  A
C1909      N1910   1.357       .  A
C1909      C1979   1.458       .  S
N1910      C1911   1.354       .  A
C1911      N1912   1.358       .  A
C1911      C1934   1.458       .  S
O1913      C1929   1.274       .  A
C1914      O1930   1.277       .  A
O1915      C1928   1.269       .  A
O1915     Cd1922   2.036       .  S
O1916      C1934   1.267       .  A
O1916     Cd1925   2.024       .  S
O1917      C1931   1.288       .  A
O1917     Cd1921   2.127       .  S
O1918      C1929   1.283       .  A
O1918     Cd1921   2.154       .  S
Zn1919     O1932   1.981       .  S
Zn1919     O1924   1.915       .  S
O1920      C1931   1.261       .  A
Cd1922     O1926   2.044       .  S
Cd1922     O1935   2.082       .  S
Cd1922     O1924   1.966       .  S
O1923      C1933   1.297       .  A
O1924     Cd1925   1.956       .  S
Cd1925     O1927   2.007       .  S
O1926      C1933   1.272       .  A
C1928      O1932   1.272       .  A
C1929      C2061   1.487       .  S
C1931      C1954   1.461       .  S
C1934      O1935   1.276       .  A
O1936      C1952   1.277       .  A
O1936     Zn1942   2.062       .  S
C1937      C2248   1.487       .  S
C1937      O1950   1.283       .  A
O1938      C1951   1.269       .  A
O1938     Cd1945   2.036       .  S
O1939      C1957   1.297       .  A
O1939     Cd1948   2.207       .  S
O1940      C1954   1.261       .  A
O1940     Cd1944   1.994       .  S
O1941      C1952   1.266       .  A
O1941     Cd1944   2.007       .  S
Zn1942     O1953   2.020       .  S
Zn1942     O1955   1.981       .  S
Zn1942     O1947   1.915       .  S
O1943      C1954   1.288       .  A
O1943     Cd1948   2.127       .  S
Cd1944     O1946   2.024       .  S
Cd1944     O1947   1.956       .  S
Cd1945     O1949   2.082       .  S
Cd1945     O1958   2.044       .  S
Cd1945     O1947   1.966       .  S
O1946      C1956   1.267       .  A
O1947     Cd1948   1.997       .  S
O1949      C1956   1.276       .  A
C1951      O1955   1.272       .  A
C1956      C2007   1.458       .  S
C1957      O1958   1.272       .  A
O1959      C1975   1.271       .  A
O1959     Zn1965   1.976       .  S
C1960      O1976   1.272       .  A
C1960      O1973   1.284       .  A
O1961     Cd1968   2.014       .  S
O1962      C1980   1.287       .  A
O1962     Cd1971   2.123       .  S
O1963      C1977   1.271       .  A
O1963     Cd1967   2.044       .  S
O1964      C1975   1.269       .  A
O1964     Cd1967   2.035       .  S
Zn1965     O1970   1.916       .  S
O1966      C1977   1.297       .  A
Cd1967     O1969   2.080       .  S
Cd1967     O1970   1.965       .  S
Cd1968     O1972   2.028       .  S
Cd1968     O1970   1.957       .  S
O1969      C1979   1.275       .  A
Cd1971     O1973   2.156       .  S
O1972      C1979   1.269       .  A
C1974      O1978   1.276   1_545  A
C1975      C2085   1.447       .  S
C1980      C2002   1.461       .  S
C1980      O1981   1.262       .  A
O1982     Zn1988   2.014       .  S
C1983      C2271   1.447       .  S
C1983      O1999   1.271       .  A
C1983      O1996   1.269       .  A
O1984      C1997   1.268       .  A
O1984     Cd1991   2.014       .  S
O1985      C2003   1.275       .  A
O1985     Cd1994   2.080       .  S
O1986      C2000   1.297       .  A
O1986     Cd1990   2.211       .  S
O1987      C1998   1.284       .  A
Zn1988     O1999   1.976       .  S
Zn1988     O2001   2.058       .  S
Zn1988     O1993   1.916       .  S
O1989      C2000   1.271       .  A
O1989     Cd1994   2.044       .  S
Cd1990     O1992   2.123       .  S
Cd1990     O1993   1.998       .  S
Cd1991     O1995   1.996       .  S
Cd1991     O2004   2.028       .  S
Cd1991     O1993   1.957       .  S
O1992      C2002   1.287       .  A
O1993     Cd1994   1.965       .  S
Cd1994     O1996   2.035       .  S
O1995      C2002   1.262       .  A
C1997      O2001   1.276       .  A
C2003      C2009   1.458       .  S
C2003      O2004   1.269       .  A
C2005      N2006   1.355       .  A
C2005      N2010   1.358       .  A
C2005      C2055   1.459       .  S
N2006      C2007   1.358       .  A
C2007      N2008   1.354       .  A
N2008      C2009   1.357       .  A
C2009      N2010   1.354       .  A
O2011      C2027   1.270       .  A
O2011     Zn2017   1.988       .  S
C2012      O2028   1.273       .  A
C2012      O2025   1.283       .  A
O2013      C2026   1.267       .  A
O2013     Cd2020   2.011       .  S
O2014      C2032   1.287       .  A
O2014     Cd2023   2.125       .  S
O2015      C2029   1.274       .  A
O2015     Cd2019   2.054       .  S
O2016      C2027   1.269       .  A
O2016     Cd2019   2.043       .  S
Zn2017     O2028   2.017       .  S
Zn2017     O2030   2.063       .  S
Zn2017     O2022   1.922       .  S
O2018      C2029   1.297       .  A
O2018     Cd2023   2.209       .  S
Cd2019     O2021   2.080       .  S
Cd2019     O2022   1.961       .  S
Cd2020     O2024   2.028       .  S
Cd2020     O2033   1.995       .  S
Cd2020     O2022   1.956       .  S
O2021      C2031   1.275       .  A
O2022     Cd2023   1.999       .  S
Cd2023     O2025   2.154       .  S
O2024      C2031   1.268       .  A
C2026      O2030   1.277       .  A
C2029      N2244   1.459       .  S
C2032      C2054   1.461       .  S
C2032      O2033   1.262       .  A
O2034      C2050   1.273       .  A
O2034     Zn2040   2.017       .  S
C2035      O2051   1.270       .  A
C2035      O2048   1.269       .  A
O2036      C2049   1.267       .  A
O2036     Cd2043   2.011       .  S
O2037      C2055   1.275       .  A
O2037     Cd2046   2.080       .  S
O2038      C2052   1.297       .  A
O2038     Cd2042   2.209       .  S
O2039      C2050   1.283       .  A
O2039     Cd2042   2.154       .  S
Zn2040     O2051   1.988       .  S
Zn2040     O2053   2.064       .  S
Zn2040     O2045   1.922       .  S
O2041      C2052   1.274       .  A
O2041     Cd2046   2.054       .  S
Cd2042     O2044   2.125       .  S
Cd2042     O2045   1.999       .  S
Cd2043     O2047   1.994       .  S
Cd2043     O2056   2.028       .  S
Cd2043     O2045   1.956       .  S
O2044      C2054   1.287       .  A
O2045     Cd2046   1.961       .  S
Cd2046     O2048   2.043       .  S
O2047      C2054   1.262       .  A
C2049      O2053   1.277       .  A
C2052      N2057   1.459       .  S
C2055      O2056   1.268       .  A
N2057      C2061   1.372       .  A
N2057      C2058   1.369       .  A
C2058      C2065   1.474       .  S
C2058      C2059   1.380       .  A
C2059      C2060   1.358       .  A
C2059      H2062   1.083       .  S
C2060      C2061   1.379       .  A
C2060      H2063   1.081       .  S
O2064      C2080   1.282       .  A
O2064     Zn2070   2.032       .  S
C2065      O2081   1.282       .  A
C2065      O2078   1.270       .  A
O2066      C2079   1.267       .  A
O2066     Cd2073   2.048       .  S
O2067      C2085   1.273       .  A
O2067     Cd2076   2.057       .  S
O2068      C2082   1.276       .  A
O2068     Cd2072   2.080       .  S
O2069      C2080   1.270       .  A
O2069     Cd2072   2.081       .  S
Zn2070     O2081   2.032       .  S
Zn2070     O2083   2.112       .  S
Zn2070     O2075   1.912       .  S
O2071      C2082   1.276       .  A
O2071     Cd2076   2.080       .  S
Cd2072     O2074   2.057       .  S
Cd2072     O2075   2.032       .  S
Cd2073     O2077   2.017       .  S
Cd2073     O2086   2.017       .  S
Cd2073     O2075   1.975       .  S
O2074      C2084   1.273       .  A
O2075     Cd2076   2.032       .  S
Cd2076     O2078   2.081       .  S
O2077      C2084   1.268       .  A
C2079      O2083   1.282       .  A
C2080      C2088   1.474       .  S
C2084      C2147   1.447       .  S
C2085      O2086   1.268       .  A
N2087      C2091   1.372       .  A
N2087      C2088   1.369       .  A
N2087      C2239   1.459       .  S
C2088      C2089   1.380       .  A
C2089      C2090   1.358       .  A
C2089      H2092   1.083       .  S
C2090      C2091   1.379       .  A
C2090      H2093   1.081       .  S
C2091      C2101   1.487       .  S
C2094      N2095   1.358       .  A
C2094      N2099   1.355       .  A
C2094      C2219   1.459       .  S
N2095      C2096   1.354       .  A
C2096      N2097   1.357       .  A
C2096      C2167   1.458       .  S
N2097      C2098   1.354       .  A
C2098      N2099   1.358       .  A
C2098      C2120   1.458       .  S
O2100      C2116   1.277       .  A
C2101      O2117   1.274       .  A
C2101      O2114   1.283       .  A
O2102      C2115   1.269       .  A
O2102     Cd2109   2.036       .  S
O2103      C2121   1.297       .  A
O2104      C2118   1.261       .  A
O2105     Cd2108   2.007       .  S
Zn2106     O2119   1.981       .  S
Zn2106     O2111   1.915       .  S
O2107      C2118   1.288   1_554  A
O2107     Cd2112   2.127       .  S
Cd2108     O2110   2.024       .  S
Cd2108     O2111   1.956       .  S
Cd2109     O2113   2.082       .  S
Cd2109     O2122   2.044   1_556  S
Cd2109     O2111   1.966       .  S
O2110      C2120   1.267       .  A
Cd2112     O2114   2.154   1_554  S
O2113      C2120   1.276       .  A
C2115      O2119   1.272       .  A
C2118      C2141   1.461   1_556  S
C2121      O2122   1.272       .  A
O2123     Zn2129   2.020       .  S
C2124      O2140   1.277       .  A
C2124      O2137   1.266       .  A
O2125      C2138   1.269       .  A
O2125     Cd2132   2.036       .  S
O2126      C2144   1.267       .  A
O2126     Cd2135   2.024       .  S
O2127      C2141   1.288   1_556  A
O2127     Cd2131   2.127   1_556  S
O2128      C2139   1.283       .  A
Zn2129     O2140   2.062       .  S
Zn2129     O2142   1.981       .  S
Zn2129     O2134   1.915       .  S
O2130      C2141   1.261       .  A
O2130     Cd2135   1.993       .  S
Cd2131     O2133   2.207   1_554  S
Cd2131     O2134   1.997       .  S
Cd2132     O2136   2.044   1_554  S
Cd2132     O2145   2.082       .  S
Cd2132     O2134   1.966       .  S
O2133      C2143   1.297       .  A
O2134     Cd2135   1.956       .  S
Cd2135     O2137   2.007       .  S
O2136      C2143   1.272       .  A
C2138      O2142   1.272       .  A
C2139      C2278   1.487       .  S
C2144      C2194   1.458       .  S
C2144      O2145   1.276       .  A
O2146      C2162   1.272       .  A
C2147      O2163   1.271       .  A
C2147      O2160   1.269       .  A
O2148     Cd2155   2.014       .  S
O2149      C2167   1.275       .  A
O2149     Cd2158   2.080       .  S
O2150      C2164   1.297       .  A
O2151      C2162   1.284       .  A
O2151     Cd2154   2.155   1_556  S
Zn2152     O2163   1.976       .  S
Zn2152     O2157   1.916       .  S
O2153      C2164   1.271       .  A
O2153     Cd2158   2.044   1_554  S
Cd2154     O2156   2.123       .  S
Cd2155     O2168   2.028       .  S
Cd2155     O2157   1.956       .  S
O2156      C2166   1.287   1_554  A
O2157     Cd2158   1.965       .  S
Cd2158     O2160   2.035       .  S
O2159      C2166   1.262       .  A
C2161      O2165   1.276   1_545  A
C2166      C2190   1.461   1_556  S
C2167      O2168   1.269       .  A
O2169      C2185   1.271       .  A
O2169     Zn2175   1.976       .  S
C2170      O2183   1.284       .  A
O2171      C2184   1.268       .  A
O2171     Cd2178   2.014       .  S
O2172      C2190   1.287   1_556  A
O2172     Cd2181   2.123   1_556  S
O2173      C2187   1.271       .  A
O2173     Cd2177   2.044   1_556  S
O2174      C2185   1.269       .  A
O2174     Cd2177   2.035       .  S
Zn2175     O2186   2.014       .  S
Zn2175     O2188   2.058       .  S
Zn2175     O2180   1.916       .  S
O2176      C2187   1.297       .  A
O2176     Cd2181   2.211   1_556  S
Cd2177     O2179   2.080       .  S
Cd2177     O2180   1.965       .  S
Cd2178     O2182   2.028       .  S
Cd2178     O2191   1.996       .  S
Cd2178     O2180   1.957       .  S
O2179      C2189   1.275       .  A
O2180     Cd2181   1.998       .  S
O2182      C2189   1.269       .  A
C2184      O2188   1.276       .  A
C2185      C2272   1.447       .  S
C2189      C2196   1.458       .  S
C2190      O2191   1.262       .  A
C2192      N2193   1.355       .  A
C2192      N2197   1.358       .  A
C2192      C2241   1.459       .  S
N2193      C2194   1.358       .  A
C2194      N2195   1.354       .  A
N2195      C2196   1.357       .  A
C2196      N2197   1.354       .  A
O2198      C2214   1.273       .  A
O2198     Zn2204   2.017       .  S
C2199      O2215   1.270       .  A
C2199      O2212   1.269       .  A
O2200      C2213   1.267       .  A
O2200     Cd2207   2.011       .  S
O2201      C2219   1.275       .  A
O2201     Cd2210   2.080       .  S
O2202      C2216   1.297       .  A
O2202     Cd2206   2.209       .  S
O2203      C2214   1.283       .  A
O2203     Cd2206   2.155   1_556  S
Zn2204     O2215   1.988       .  S
Zn2204     O2217   2.063       .  S
Zn2204     O2209   1.922       .  S
O2205      C2216   1.274       .  A
O2205     Cd2210   2.054   1_554  S
Cd2206     O2208   2.125       .  S
Cd2206     O2209   1.999   1_554  S
Cd2207     O2211   1.994       .  S
Cd2207     O2220   2.028       .  S
Cd2207     O2209   1.956       .  S
O2208      C2218   1.287   1_554  A
O2209     Cd2210   1.961       .  S
Cd2210     O2212   2.043       .  S
O2211      C2218   1.262       .  A
C2213      O2217   1.277       .  A
C2216      N2274   1.459       .  S
C2218      C2242   1.461   1_556  S
C2219      O2220   1.268       .  A
O2221      C2237   1.270       .  A
O2221     Zn2227   1.988       .  S
C2222      O2238   1.273       .  A
C2222      O2235   1.283       .  A
O2223      C2236   1.267       .  A
O2223     Cd2230   2.011       .  S
O2224      C2242   1.287   1_556  A
O2224     Cd2233   2.125       .  S
O2225      C2239   1.274       .  A
O2225     Cd2229   2.054   1_556  S
O2226      C2237   1.269       .  A
O2226     Cd2229   2.043       .  S
Zn2227     O2238   2.017       .  S
Zn2227     O2240   2.063       .  S
Zn2227     O2232   1.922       .  S
O2228      C2239   1.297       .  A
O2228     Cd2233   2.209       .  S
Cd2229     O2231   2.080       .  S
Cd2229     O2232   1.961       .  S
Cd2230     O2234   2.028       .  S
Cd2230     O2243   1.995       .  S
Cd2230     O2232   1.956       .  S
O2231      C2241   1.275       .  A
O2232     Cd2233   1.999   1_554  S
Cd2233     O2235   2.154   1_556  S
O2234      C2241   1.268       .  A
C2236      O2240   1.277       .  A
C2242      O2243   1.262       .  A
N2244      C2248   1.372       .  A
N2244      C2245   1.369       .  A
C2245      C2267   1.474       .  S
C2245      C2246   1.380       .  A
C2246      C2247   1.358       .  A
C2246      H2249   1.083       .  S
C2247      C2248   1.379       .  A
C2247      H2250   1.081       .  S
O2251      C2267   1.282       .  A
O2251     Zn2257   2.032       .  S
C2252      C2275   1.474       .  S
C2252      O2268   1.282       .  A
C2252      O2265   1.270       .  A
O2253      C2266   1.267       .  A
O2253     Cd2260   2.048       .  S
O2254      C2272   1.273       .  A
O2254     Cd2263   2.057       .  S
O2255      C2269   1.276       .  A
O2255     Cd2259   2.080       .  S
O2256      C2267   1.270       .  A
O2256     Cd2259   2.081       .  S
Zn2257     O2268   2.032       .  S
Zn2257     O2270   2.112       .  S
Zn2257     O2262   1.912       .  S
O2258      C2269   1.276       .  A
O2258     Cd2263   2.080       .  S
Cd2259     O2261   2.057       .  S
Cd2259     O2262   2.032       .  S
Cd2260     O2264   2.017       .  S
Cd2260     O2273   2.017       .  S
Cd2260     O2262   1.975       .  S
O2261      C2271   1.273       .  A
O2262     Cd2263   2.032       .  S
Cd2263     O2265   2.081       .  S
O2264      C2271   1.268       .  A
C2266      O2270   1.282       .  A
C2272      O2273   1.268       .  A
N2274      C2278   1.372       .  A
N2274      C2275   1.369       .  A
C2275      C2276   1.380       .  A
C2276      C2277   1.358       .  A
C2276      H2279   1.083       .  S
C2277      C2278   1.379       .  A
C2277      H2280   1.081       .  S
