geometry optimzed in LAMMPS
_audit_creation_date              2020-12-01 
_audit_creation_method            'lammps2cif' 
_symmetry_space_group_name_H-M    'P1' 
_symmetry_Int_Tables_number       1 
_symmetry_cell_setting            triclinic 
loop_ 
_symmetry_equiv_pos_as_xyz 
  x,y,z 
_cell_length_a                    40.46416921 
_cell_length_b                    40.60686880997881 
_cell_length_c                    55.77215357451872 
_cell_angle_alpha                 90.14912804080114 
_cell_angle_beta                  89.9492735408785 
_cell_angle_gamma                 89.99377091399246 
loop_ 
_atom_site_label 
_atom_site_type_symbol 
_atom_site_fract_x 
_atom_site_fract_y 
_atom_site_fract_z 
_atom_site_charge 
O1          O  0.86768649  0.93933807  0.64279903    -0.70100
O2          O  0.82380255  0.85720952  0.63328477    -0.70300
O3          O  0.82786411  0.90049772  0.66947813    -0.70200
O4          O  0.86304975  0.89595763  0.60661563    -0.70200
O5          O  0.90703832  0.87206465  0.62029059    -0.70100
O6          O  0.86982889  0.87301430  0.68299262    -0.70100
O7          O  0.86803359  0.83180240  0.64528709    -0.70100
O8          O  0.90956665  0.91326851  0.65774959    -0.70300
V9          V  0.84641170  0.89783663  0.63834833     1.35200
V10         V  0.88776729  0.87309910  0.65138884     1.35200
C11         C  0.89650554  0.94019683  0.65162590     0.79200
C12         C  0.83894678  0.83049154  0.63721795     0.79200
C13         C  0.84222443  0.88672207  0.68688307     0.79100
C14         C  0.89101867  0.88323049  0.60260914     0.79100
O15         O  0.06559114  0.14448342  0.63187411    -0.70100
O16         O  0.15046749  0.18333374  0.62390441    -0.70300
O17         O  0.11082158  0.14599358  0.59660460    -0.70200
O18         O  0.10546682  0.18219732  0.65934627    -0.70200
O19         O  0.13093163  0.13951878  0.67348927    -0.70100
O20         O  0.13128576  0.10098107  0.61120402    -0.70100
O21         O  0.17332916  0.13832340  0.63649476    -0.70100
O22         O  0.08882114  0.10197507  0.64844837    -0.70300
V23         V  0.10846788  0.16317960  0.62823265     1.35200
V24         V  0.13058492  0.12100353  0.64212152     1.35200
C25         C  0.06291178  0.11670705  0.64186655     0.79200
C26         C  0.17647872  0.16723160  0.62850520     0.79200
C27         C  0.12207897  0.11733617  0.59309662     0.79100
C28         C  0.11795475  0.16744937  0.67712918     0.79100
O29         O  0.07117030  0.29242515  0.89054607    -0.70100
O30         O  0.15886353  0.25903172  0.89234554    -0.70300
O31         O  0.12075611  0.29313882  0.92257175    -0.70200
O32         O  0.10979729  0.25787915  0.86001717    -0.70200
O33         O  0.13299051  0.30139835  0.84515333    -0.70100
O34         O  0.13358711  0.34060348  0.90726955    -0.70100
O35         O  0.17726436  0.30673150  0.88093091    -0.70100
O36         O  0.08925219  0.33545891  0.87150945    -0.70300
V37         V  0.11537848  0.27643326  0.89106138     1.35200
V38         V  0.13287850  0.32023687  0.87644878     1.35200
C39         C  0.06533149  0.31950880  0.88025779     0.79200
C40         C  0.18308536  0.27770588  0.88783968     0.79200
C41         C  0.12893191  0.32290250  0.92560132     0.79100
C42         C  0.12072596  0.27305217  0.84187826     0.79100
O43         O  0.86965694  0.49466039  0.89611866    -0.70100
O44         O  0.82445447  0.57638473  0.90276757    -0.70300
O45         O  0.82792527  0.52970668  0.86851287    -0.70200
O46         O  0.86592599  0.54149975  0.93017078    -0.70200
O47         O  0.90582680  0.56965167  0.91427937    -0.70100
O48         O  0.87115108  0.55220514  0.85245244    -0.70100
O49         O  0.86482238  0.60087794  0.88423000    -0.70100
O50         O  0.91227200  0.52087024  0.88227993    -0.70300
V51         V  0.84773957  0.53597899  0.89907906     1.35200
V52         V  0.88774257  0.56035222  0.88363140     1.35200
C53         C  0.89914810  0.49403319  0.88857478     0.79200
C54         C  0.83685019  0.60237896  0.89416387     0.79200
C55         C  0.84314278  0.53890139  0.84986633     0.79100
C56         C  0.89194327  0.55836262  0.93283835     0.79100
O57         O  0.51106322  0.30104442  0.63216383    -0.70100
O58         O  0.42771108  0.25878953  0.62523799    -0.70300
O59         O  0.46533059  0.29715177  0.59731969    -0.70200
O60         O  0.47356774  0.26240798  0.66002145    -0.70200
O61         O  0.44839951  0.30508863  0.67465698    -0.70100
O62         O  0.44179899  0.34096348  0.61165957    -0.70100
O63         O  0.40353315  0.30247298  0.63922649    -0.70100
O64         O  0.48649757  0.34378933  0.64732514    -0.70300
V65         V  0.46895782  0.28069890  0.62896901     1.35200
V66         V  0.44553562  0.32226992  0.64291892     1.35200
C67         C  0.51296744  0.32957042  0.64122740     0.79200
C68         C  0.40132015  0.27354162  0.63101948     0.79200
C69         C  0.45196985  0.32480468  0.59364088     0.79100
C70         C  0.46248132  0.27764622  0.67810888     0.79100
O71         O  0.72411933  0.49200181  0.63600579    -0.70100
O72         O  0.76460354  0.57647315  0.63406569    -0.70300
O73         O  0.76014768  0.52817406  0.66688822    -0.70200
O74         O  0.72850065  0.54008504  0.60338252    -0.70200
O75         O  0.68181572  0.55745952  0.61773219    -0.70100
O76         O  0.71757856  0.55477601  0.68052712    -0.70100
O77         O  0.71777655  0.59864222  0.64439025    -0.70100
O78         O  0.68142670  0.51384526  0.65365930    -0.70300
V79         V  0.74361351  0.53457699  0.63537746     1.35200
V80         V  0.70052306  0.55577626  0.64886341     1.35200
C81         C  0.69594828  0.48872037  0.64547934     0.79200
C82         C  0.74748567  0.60200247  0.63793910     0.79200
C83         C  0.74449030  0.53996820  0.68457922     0.79100
C84         C  0.69933312  0.55007936  0.59970507     0.79100
O85         O  0.71433491  0.93773942  0.89860360    -0.70100
O86         O  0.75283073  0.85251077  0.90145970    -0.70300
O87         O  0.75039221  0.90009250  0.86837083    -0.70200
O88         O  0.71700375  0.88964101  0.93156585    -0.70200
O89         O  0.67042982  0.87238101  0.91700019    -0.70100
O90         O  0.70728682  0.87482060  0.85435155    -0.70100
O91         O  0.70622289  0.83107277  0.89011966    -0.70100
O92         O  0.67133564  0.91652831  0.88104452    -0.70300
V93         V  0.73280344  0.89469488  0.89972993     1.35200
V94         V  0.68960583  0.87421117  0.88589981     1.35200
C95         C  0.68648098  0.94157768  0.88878266     0.79200
C96         C  0.73580203  0.82720665  0.89673460     0.79200
C97         C  0.73517328  0.88792438  0.85062624     0.79100
C98         C  0.68799744  0.87913027  0.93512405     0.79100
O99         O  0.51749414  0.14554303  0.88934197    -0.70100
O100        O  0.43839834  0.19557299  0.89583705    -0.70300
O101        O  0.47101925  0.15190052  0.92329046    -0.70200
O102        O  0.48469474  0.18939392  0.86148851    -0.70200
O103        O  0.46039893  0.14719762  0.84543498    -0.70100
O104        O  0.43950064  0.11458887  0.90725464    -0.70100
O105        O  0.41177234  0.15716434  0.87671781    -0.70100
O106        O  0.48859355  0.10448968  0.87596257    -0.70300
V107        V  0.47748358  0.16991223  0.89216144     1.35200
V108        V  0.45069419  0.13159609  0.87664322     1.35200
C109        C  0.51621866  0.11582324  0.88252881     0.79200
C110        C  0.41178128  0.18505333  0.88675160     0.79200
C111        C  0.45214565  0.12729462  0.92580847     0.79100
C112        C  0.47458719  0.17469104  0.84281937     0.79100
O113        O  0.35397118  0.44450557  0.39134935    -0.70100
O114        O  0.31858934  0.35764969  0.39398412    -0.70300
O115        O  0.35457059  0.39559478  0.42351470    -0.70200
O116        O  0.31757213  0.40654746  0.36159225    -0.70200
O117        O  0.36155946  0.38526583  0.34563400    -0.70100
O118        O  0.40033309  0.37833970  0.40765788    -0.70100
O119        O  0.36438570  0.33834971  0.37948640    -0.70100
O120        O  0.39765903  0.42506860  0.37358888    -0.70300
V121        V  0.33700891  0.40072311  0.39226634     1.35200
V122        V  0.38013388  0.38215577  0.37689397     1.35200
C123        C  0.38191822  0.44944789  0.38185103     0.79200
C124        C  0.33569269  0.33304226  0.38754858     0.79200
C125        C  0.38379288  0.38529893  0.42628913     0.79100
C126        C  0.33294928  0.39733791  0.34299806     0.79100
O127        O  0.56458943  0.63934576  0.39905547    -0.70100
O128        O  0.64837972  0.68241775  0.40188349    -0.70300
O129        O  0.59943685  0.67888620  0.36943306    -0.70200
O130        O  0.61365742  0.64326925  0.43149401    -0.70200
O131        O  0.63670175  0.60024641  0.41559557    -0.70100
O132        O  0.62305930  0.63616039  0.35358993    -0.70100
O133        O  0.67131684  0.63922457  0.38618124    -0.70100
O134        O  0.58848171  0.59691050  0.38297757    -0.70300
V135        V  0.60690306  0.66019296  0.40016631     1.35200
V136        V  0.62935503  0.61899545  0.38489131     1.35200
C137        C  0.56244550  0.61038790  0.39070870     0.79200
C138        C  0.67423494  0.66802804  0.39445942     0.79200
C139        C  0.60931824  0.66389088  0.35086448     0.79100
C140        C  0.62775067  0.61573535  0.43420740     0.79100
O141        O  0.01085200  0.65845606  0.13499917    -0.70100
O142        O  0.92333274  0.69349075  0.13385271    -0.70300
O143        O  0.97280492  0.69288715  0.16577314    -0.70200
O144        O  0.96107446  0.65959638  0.10298375    -0.70200
O145        O  0.94722207  0.61202694  0.11760124    -0.70100
O146        O  0.94907627  0.64933863  0.18017718    -0.70100
O147        O  0.90435036  0.64572762  0.14467077    -0.70100
O148        O  0.99182513  0.61525770  0.15333135    -0.70300
V149        V  0.96674507  0.67528459  0.13465336     1.35200
V150        V  0.94852810  0.63139815  0.14868567     1.35200
C151        C  0.01617006  0.63113795  0.14518237     0.79200
C152        C  0.89887252  0.67506183  0.13838231     0.79200
C153        C  0.96189125  0.67737529  0.18370525     0.79100
C154        C  0.95230625  0.63011998  0.09953118     0.79100
O155        O  0.20658568  0.45005961  0.13288149    -0.70100
O156        O  0.24810623  0.36587004  0.12582314    -0.70300
O157        O  0.21013035  0.40434334  0.09782323    -0.70200
O158        O  0.24498410  0.41195390  0.16087400    -0.70200
O159        O  0.20172838  0.38698061  0.17499647    -0.70100
O160        O  0.16603445  0.38122782  0.11217204    -0.70100
O161        O  0.20370737  0.34268560  0.13947085    -0.70100
O162        O  0.16354084  0.42571528  0.14770981    -0.70300
V163        V  0.22668308  0.40763819  0.12963146     1.35200
V164        V  0.18463426  0.38473402  0.14332204     1.35200
C165        C  0.17764444  0.45206259  0.14147047     0.79200
C166        C  0.23258133  0.33975408  0.13120659     0.79200
C167        C  0.18227137  0.39113465  0.09419536     0.79100
C168        C  0.22946660  0.40041417  0.17865890     0.79100
O169        O  0.36440989  0.00368805  0.13104770    -0.70100
O170        O  0.31935275  0.08625064  0.12621410    -0.70300
O171        O  0.35847354  0.05024376  0.09705795    -0.70200
O172        O  0.32500829  0.03919484  0.16030198    -0.70200
O173        O  0.36863932  0.06347976  0.17464655    -0.70100
O174        O  0.40065402  0.07680459  0.11140331    -0.70100
O175        O  0.36213546  0.11056489  0.14160282    -0.70100
O176        O  0.40748688  0.02954105  0.14445488    -0.70300
V177        V  0.34254384  0.04531355  0.12894208     1.35200
V178        V  0.38386301  0.06950526  0.14274091     1.35200
C179        C  0.39404975  0.00275600  0.13831907     0.79200
C180        C  0.33328024  0.11256901  0.13319148     0.79200
C181        C  0.38507634  0.06580890  0.09344538     0.79100
C182        C  0.34125515  0.04938594  0.17819177     0.79100
O183        O  0.55701544  0.79090621  0.13812327    -0.70100
O184        O  0.64018340  0.74694975  0.13504839    -0.70300
O185        O  0.59226052  0.75242151  0.16824837    -0.70200
O186        O  0.60522178  0.78524515  0.10514572    -0.70200
O187        O  0.62548170  0.83028220  0.12000384    -0.70100
O188        O  0.61994141  0.79376000  0.18247177    -0.70100
O189        O  0.66432606  0.79205884  0.14661272    -0.70100
O190        O  0.58088660  0.83230275  0.15574911    -0.70300
V191        V  0.59902282  0.76965184  0.13694426     1.35200
V192        V  0.62212922  0.81127698  0.15097456     1.35200
C193        C  0.55485636  0.81905807  0.14777552     0.79200
C194        C  0.66652662  0.76259685  0.13948393     0.79200
C195        C  0.60484000  0.76695735  0.18614421     0.79100
C196        C  0.61756894  0.81346669  0.10175268     0.79100
O197        O  0.01053859  0.79899135  0.39543726    -0.70100
O198        O  0.92580096  0.75822990  0.40113315    -0.70300
O199        O  0.97225587  0.76168623  0.36685609    -0.70200
O200        O  0.96400764  0.79510742  0.43002526    -0.70200
O201        O  0.94167302  0.83976467  0.41619231    -0.70100
O202        O  0.94810750  0.80533311  0.35299867    -0.70100
O203        O  0.90297604  0.80291586  0.38785056    -0.70100
O204        O  0.98670540  0.84240852  0.38101928    -0.70300
V205        V  0.96775777  0.77934253  0.39814305     1.35200
V206        V  0.94538176  0.82174854  0.38482152     1.35200
C207        C  0.01297314  0.82778684  0.38690419     0.79200
C208        C  0.89989195  0.77371062  0.39517178     0.79200
C209        C  0.96120643  0.77753664  0.34913597     0.79100
C210        C  0.95122825  0.82299644  0.43396353     0.79100
O211        O  0.22271139  0.99085884  0.39230576    -0.70100
O212        O  0.25939941  0.07716725  0.39564285    -0.70300
O213        O  0.22234365  0.03976343  0.42488273    -0.70200
O214        O  0.25996012  0.02853573  0.36280593    -0.70200
O215        O  0.21612334  0.05027950  0.34709037    -0.70100
O216        O  0.17712996  0.05787038  0.40879064    -0.70100
O217        O  0.21408196  0.09709783  0.38086989    -0.70100
O218        O  0.17932362  0.01098087  0.37465769    -0.70300
V219        V  0.24027489  0.03439973  0.39360083     1.35200
V220        V  0.19752125  0.05361949  0.37819618     1.35200
C221        C  0.19481975  0.98635186  0.38263482     0.79200
C222        C  0.24288514  0.10193042  0.38887613     0.79200
C223        C  0.19329186  0.05076774  0.42748312     0.79100
C224        C  0.24463485  0.03811833  0.34430583     0.79100
C225        C  0.07568206  0.89416062  0.37281991     0.14400
C226        C  0.10553463  0.87950708  0.37979201     0.01300
C227        C  0.10532318  0.84699203  0.38835844     0.16300
C228        C  0.07541965  0.82961228  0.39030846     0.25700
C229        C  0.04528112  0.84470458  0.38386428    -0.40600
C230        C  0.04602804  0.87705884  0.37469396     0.32800
C231        C  0.13589354  0.89982764  0.37957162     0.01400
F232        F  0.13400467  0.83219345  0.39489574    -0.12900
F233        F  0.01794576  0.89279122  0.36790887    -0.13400
C234        C  0.15085809  0.90904879  0.40132902     0.16300
C235        C  0.17283912  0.93568758  0.40204958     0.25700
C236        C  0.17963703  0.95355085  0.38108958    -0.40600
C237        C  0.16696839  0.94252559  0.35907162     0.32700
C238        C  0.14559109  0.91555422  0.35826594     0.14400
F239        F  0.14159664  0.89453065  0.42218195    -0.12900
F240        F  0.17380302  0.95911844  0.33854497    -0.13400
F241        F  0.18462674  0.94617190  0.42353854    -0.15700
F242        F  0.13214664  0.90646741  0.33694808    -0.14300
F243        F  0.07501332  0.92583178  0.36503615    -0.14300
F244        F  0.07602043  0.79827542  0.39871422    -0.15700
C245        C  0.31753793  0.01268258  0.23805933     0.14400
C246        C  0.30312425  0.04001500  0.24954253     0.01300
C247        C  0.30172614  0.07033788  0.23747094     0.16300
C248        C  0.31434750  0.07327448  0.21423374     0.25700
C249        C  0.32821211  0.04588423  0.20263551    -0.40600
C250        C  0.32980528  0.01555647  0.21462831     0.32800
C251        C  0.28825318  0.03693042  0.27370318     0.01400
F252        F  0.28817769  0.09713155  0.24828275    -0.12900
F253        F  0.34337207  0.98887869  0.20368009    -0.13400
C254        C  0.30799203  0.03110700  0.29395651     0.16300
C255        C  0.29385288  0.03065409  0.31693048     0.25700
C256        C  0.25963183  0.03598561  0.31999131    -0.40600
C257        C  0.23989797  0.04078587  0.29945238     0.32700
C258        C  0.25410817  0.04130356  0.27662186     0.14400
F259        F  0.34114465  0.02710161  0.29155072    -0.12900
F260        F  0.20673342  0.04517455  0.30135508    -0.13400
F261        F  0.31389126  0.02617691  0.33616165    -0.15700
F262        F  0.23447280  0.04628184  0.25723292    -0.14300
F263        F  0.31905189  0.98314299  0.24935163    -0.14300
F264        F  0.31260276  0.10274963  0.20285503    -0.15700
C265        C  0.46596568  0.94413820  0.14609219     0.14400
C266        C  0.45075130  0.91318752  0.14436707     0.01300
C267        C  0.41668226  0.91145555  0.13961497     0.16300
C268        C  0.39797554  0.94045000  0.13730984     0.25700
C269        C  0.41318932  0.97157386  0.13973505    -0.40600
C270        C  0.44754194  0.97289661  0.14387750     0.32800
C271        C  0.47138777  0.88333309  0.14733300     0.01400
F272        F  0.40146630  0.88177245  0.13770915    -0.12900
F273        F  0.46372173  0.00210614  0.14559964    -0.13400
C274        C  0.49036114  0.87968580  0.16826264     0.16300
C275        C  0.51633378  0.85708931  0.16896493     0.25700
C276        C  0.52329669  0.83718752  0.14894742    -0.40600
C277        C  0.50222432  0.83842589  0.12891116     0.32700
C278        C  0.47653630  0.86158186  0.12803416     0.14400
F279        F  0.48507027  0.89964059  0.18746930    -0.12900
F280        F  0.50842477  0.81949099  0.10931814    -0.13400
F281        F  0.53565882  0.85568826  0.18883440    -0.15700
F282        F  0.45865538  0.86468774  0.10757975    -0.14300
F283        F  0.49908706  0.94655234  0.14965752    -0.14300
F284        F  0.36502708  0.93798476  0.13311266    -0.15700
C285        C  0.27858803  0.18317296  0.11230972     0.14400
C286        C  0.28990826  0.20912285  0.12692371     0.01300
C287        C  0.31452656  0.20282522  0.14399297     0.16300
C288        C  0.32796136  0.17132796  0.14628262     0.25700
C289        C  0.31706791  0.14526661  0.13150708    -0.40600
C290        C  0.29200846  0.15146620  0.11459433     0.32800
C291        C  0.27490745  0.24238799  0.12557466     0.01400
F292        F  0.32502361  0.22711401  0.15893881    -0.12900
F293        F  0.28111900  0.12715358  0.09983338    -0.13400
C294        C  0.24132069  0.24657425  0.13089309     0.16300
C295        C  0.22758522  0.27807491  0.13217699     0.25700
C296        C  0.24723242  0.30634492  0.12823598    -0.40600
C297        C  0.28075282  0.30199665  0.12208796     0.32700
C298        C  0.29443803  0.27029368  0.12082853     0.14400
F299        F  0.22201178  0.22010972  0.13589254    -0.12900
F300        F  0.30054961  0.32833254  0.11782932    -0.13400
F301        F  0.19500075  0.28069561  0.13770171    -0.15700
F302        F  0.32691498  0.26680371  0.11522537    -0.14300
F303        F  0.25489305  0.18870000  0.09557343    -0.14300
F304        F  0.35132378  0.16628060  0.16335000    -0.15700
C305        C  0.82356086  0.72945314  0.14471694     0.14400
C306        C  0.79861601  0.70953240  0.13466847     0.01300
C307        C  0.80710590  0.67831165  0.12556419     0.16300
C308        C  0.83977019  0.66710428  0.12680543     0.25700
C309        C  0.86465593  0.68725616  0.13656647    -0.40600
C310        C  0.85634367  0.71860978  0.14531831     0.32800
C311        C  0.76392481  0.72151409  0.13389291     0.01400
F312        F  0.78390920  0.65888374  0.11508579    -0.12900
F313        F  0.87974399  0.73821338  0.15537898    -0.13400
C314        C  0.75683368  0.75273305  0.12431563     0.16300
C315        C  0.72496285  0.76574514  0.12583453     0.25700
C316        C  0.69930050  0.74740924  0.13627704    -0.40600
C317        C  0.70575956  0.71540832  0.14453658     0.32700
C318        C  0.73794253  0.70269474  0.14366102     0.14400
F319        F  0.78089213  0.77075700  0.11356563    -0.12900
F320        F  0.68132539  0.69720201  0.15465183    -0.13400
F321        F  0.71908889  0.79629938  0.11694755    -0.15700
F322        F  0.74395667  0.67266807  0.15337830    -0.14300
F323        F  0.81602018  0.75911729  0.15459913    -0.14300
F324        F  0.84724865  0.63680949  0.11796545    -0.15700
C325        C  0.94514412  0.76341374  0.28294457     0.14400
C326        C  0.96494373  0.73573750  0.27827481     0.01300
C327        C  0.98411243  0.72229528  0.29677179     0.16300
C328        C  0.98317865  0.73601359  0.31974870     0.25700
C329        C  0.96311323  0.76365109  0.32460407    -0.40600
C330        C  0.94425870  0.77731219  0.30586496     0.32800
C331        C  0.96509895  0.72054435  0.25419822     0.01400
F332        F  0.00400514  0.69598170  0.29249880    -0.12900
F333        F  0.92420359  0.80360044  0.30977441    -0.13400
C334        C  0.97452099  0.73901464  0.23411055     0.16300
C335        C  0.97381562  0.72494241  0.21125010     0.25700
C336        C  0.96367357  0.69195443  0.20805755    -0.40600
C337        C  0.95463997  0.67341172  0.22836191     0.32700
C338        C  0.95530098  0.68763193  0.25118734     0.14400
F339        F  0.98461722  0.77072830  0.23666815    -0.12900
F340        F  0.94500108  0.64151150  0.22624108    -0.13400
F341        F  0.98267685  0.74389274  0.19228011    -0.15700
F342        F  0.94560523  0.66946143  0.27034980    -0.14300
F343        F  0.92591344  0.77644114  0.26542377    -0.14300
F344        F  0.00209376  0.72225651  0.33714818    -0.15700
C345        C  0.08601346  0.58097054  0.16981210     0.14400
C346        C  0.10387472  0.57386169  0.14882134     0.01300
C347        C  0.09660434  0.59118738  0.12767305     0.16300
C348        C  0.06959367  0.61281870  0.12695294     0.25700
C349        C  0.04951204  0.61692628  0.14731374    -0.40600
C350        C  0.05886577  0.60213927  0.16901745     0.32800
C351        C  0.12407463  0.54353061  0.14775842     0.01400
F352        F  0.11343516  0.58454945  0.10715504    -0.12900
F353        F  0.04033143  0.60650943  0.18909375    -0.13400
C354        C  0.10811210  0.51317251  0.15071541     0.16300
C355        C  0.12563471  0.48380410  0.14884649     0.25700
C356        C  0.15983510  0.48392663  0.14390265    -0.40600
C357        C  0.17598857  0.51450093  0.14106464     0.32700
C358        C  0.15814296  0.54411678  0.14292214     0.14400
F359        F  0.07502309  0.51192749  0.15478230    -0.12900
F360        F  0.20895319  0.51581356  0.13663860    -0.13400
F361        F  0.10862021  0.45518664  0.15132984    -0.15700
F362        F  0.17407039  0.57328580  0.14018985    -0.14300
F363        F  0.09308447  0.56504512  0.19056836    -0.14300
F364        F  0.06096826  0.62680431  0.10577922    -0.15700
C365        C  0.74269185  0.73025482  0.40623050     0.14400
C366        C  0.77032937  0.71372502  0.39684916     0.01300
C367        C  0.76630687  0.68250357  0.38651675     0.16300
C368        C  0.73515665  0.66779123  0.38568381     0.25700
C369        C  0.70722390  0.68405557  0.39527539    -0.40600
C370        C  0.71140120  0.71557167  0.40552300     0.32800
C371        C  0.80328709  0.72936185  0.39711070     0.01400
F372        F  0.79254406  0.66653764  0.37669239    -0.12900
F373        F  0.68533590  0.73225180  0.41491859    -0.13400
C374        C  0.82955752  0.71499775  0.40979618     0.16300
C375        C  0.86102246  0.72934127  0.40935194     0.25700
C376        C  0.86668274  0.75832962  0.39614719    -0.40600
C377        C  0.84012717  0.77255648  0.38343852     0.32700
C378        C  0.80880921  0.75818749  0.38395293     0.14400
F379        F  0.82460117  0.68718482  0.42277360    -0.12900
F380        F  0.84451869  0.79997277  0.36991104    -0.13400
F381        F  0.88575235  0.71502465  0.42203501    -0.15700
F382        F  0.78399927  0.77192466  0.37099362    -0.14300
F383        F  0.74611718  0.76054932  0.41628944    -0.14300
F384        F  0.73250171  0.63768225  0.37520964    -0.15700
C385        C  0.61696536  0.75442232  0.25318039     0.14400
C386        C  0.60117780  0.72407030  0.25687891     0.01300
C387        C  0.58561163  0.70839024  0.23747903     0.16300
C388        C  0.58625510  0.72250691  0.21461962     0.25700
C389        C  0.60259732  0.75272902  0.21066993    -0.40600
C390        C  0.61767856  0.76864488  0.23036111     0.32800
C391        C  0.60198887  0.70823141  0.28078538     0.01400
F392        F  0.56969342  0.67929537  0.24070585    -0.12900
F393        F  0.63372127  0.79775880  0.22759294    -0.13400
C394        C  0.58835937  0.72408605  0.30089105     0.16300
C395        C  0.59014771  0.70951883  0.32358138     0.25700
C396        C  0.60572932  0.67868764  0.32661803    -0.40600
C397        C  0.61898712  0.66273546  0.30626017     0.32700
C398        C  0.61714347  0.67739241  0.28364365     0.14400
F399        F  0.57313657  0.75370346  0.29851517    -0.12900
F400        F  0.63439889  0.63315392  0.30816298    -0.13400
F401        F  0.57681013  0.72583550  0.34253587    -0.15700
F402        F  0.63109196  0.66185752  0.26456627    -0.14300
F403        F  0.63266057  0.76982321  0.27156917    -0.14300
F404        F  0.57113100  0.70627741  0.19636876    -0.15700
C405        C  0.27703216  0.26104968  0.39703594     0.14400
C406        C  0.29726288  0.23397627  0.39138420     0.01300
C407        C  0.33041293  0.23952147  0.38510016     0.16300
C408        C  0.34301271  0.27157607  0.38414677     0.25700
C409        C  0.32258757  0.29890575  0.38929398    -0.40600
C410        C  0.28945798  0.29315064  0.39591816     0.32800
C411        C  0.28338053  0.20014661  0.39110931     0.01400
F412        F  0.35042117  0.21390587  0.37916950    -0.12900
F413        F  0.26878368  0.31854416  0.40105292    -0.13400
C414        C  0.25574701  0.19294029  0.37680672     0.16300
C415        C  0.24246612  0.16120450  0.37631661     0.25700
C416        C  0.25682628  0.13571543  0.38990290    -0.40600
C417        C  0.28468677  0.14291980  0.40413778     0.32700
C418        C  0.29771763  0.17487502  0.40480875     0.14400
F419        F  0.24202315  0.21655124  0.36277774    -0.12900
F420        F  0.29906694  0.11922955  0.41773477    -0.13400
F421        F  0.21594617  0.15537425  0.36202093    -0.15700
F422        F  0.32404898  0.18126344  0.41916096    -0.14300
F423        F  0.24510024  0.25637923  0.40371849    -0.14300
F424        F  0.37522532  0.27569181  0.37800393    -0.15700
C425        C  0.25223853  0.37711976  0.24223783     0.14400
C426        C  0.27213546  0.40378339  0.24918809     0.01300
C427        C  0.27742445  0.42979230  0.23309693     0.16300
C428        C  0.26334167  0.42891547  0.21016521     0.25700
C429        C  0.24362238  0.40203507  0.20307025    -0.40600
C430        C  0.23803107  0.37625266  0.21939607     0.32800
C431        C  0.28793890  0.40388717  0.27307052     0.01400
F432        F  0.29599988  0.45612873  0.23971395    -0.12900
F433        F  0.21983667  0.34958074  0.21292627    -0.13400
C434        C  0.32200737  0.39826071  0.27522284     0.16300
C435        C  0.33675145  0.39632800  0.29787869     0.25700
C436        C  0.31762682  0.40029567  0.31886130    -0.40600
C437        C  0.28346215  0.40658564  0.31649991     0.32700
C438        C  0.26880721  0.40818013  0.29381504     0.14400
F439        F  0.34085599  0.39382150  0.25531986    -0.12900
F440        F  0.26393978  0.41046275  0.33611713    -0.13400
F441        F  0.36974413  0.39053729  0.29918479    -0.15700
F442        F  0.23581740  0.41380366  0.29206042    -0.14300
F443        F  0.24731052  0.35148786  0.25741246    -0.14300
F444        F  0.26845137  0.45461138  0.19507792    -0.15700
C445        C  0.43631691  0.51874682  0.36161786     0.14400
C446        C  0.44111764  0.53581757  0.38328170     0.01300
C447        C  0.42109566  0.52831069  0.40313207     0.16300
C448        C  0.39895024  0.50178796  0.40199713     0.25700
C449        C  0.39712173  0.48235980  0.38112352    -0.40600
C450        C  0.41476525  0.49198049  0.36061907     0.32800
C451        C  0.47140007  0.55576192  0.38629489     0.01400
F452        F  0.42535733  0.54445583  0.42424888    -0.12900
F453        F  0.41267549  0.47414752  0.34003968    -0.13400
C454        C  0.47043638  0.58962536  0.39146238     0.16300
C455        C  0.49996741  0.60769439  0.39328862     0.25700
C456        C  0.53077143  0.59197394  0.38997914    -0.40600
C457        C  0.53131403  0.55775988  0.38563868     0.32700
C458        C  0.50205276  0.53999963  0.38386566     0.14400
F459        F  0.44100194  0.60523722  0.39418355    -0.12900
F460        F  0.56024593  0.54109934  0.38327469    -0.13400
F461        F  0.49833544  0.64052423  0.39778398    -0.15700
F462        F  0.50364805  0.50701358  0.37987594    -0.14300
F463        F  0.45477411  0.52623594  0.34202346    -0.14300
F464        F  0.38207216  0.49296764  0.42202700    -0.15700
C465        C  0.40322781  0.05453477  0.02715878     0.14400
C466        C  0.41895809  0.08447233  0.02158211     0.01300
C467        C  0.42423182  0.10766821  0.03995969     0.16300
C468        C  0.41384903  0.10120418  0.06338243     0.25700
C469        C  0.39737795  0.07167080  0.06885432    -0.40600
C470        C  0.39221640  0.04833307  0.05054079     0.32800
C471        C  0.42842474  0.09247217  0.99651647     0.01400
F472        F  0.43830877  0.13724856  0.03504701    -0.12900
F473        F  0.37697673  0.01929664  0.05534939    -0.13400
C474        C  0.40461226  0.09170577  0.97815855     0.16300
C475        C  0.41267510  0.10207426  0.95498329     0.25700
C476        C  0.44450517  0.11406603  0.94983605    -0.40600
C477        C  0.46857348  0.11405872  0.96800056     0.32700
C478        C  0.46070375  0.10300705  0.99106361     0.14400
F479        F  0.37305761  0.08238899  0.98291212    -0.12900
F480        F  0.49982844  0.12442290  0.96335427    -0.13400
F481        F  0.38882176  0.10195425  0.93787070    -0.15700
F482        F  0.48460553  0.10269326  0.00813670    -0.14300
F483        F  0.39870358  0.03120979  0.00998268    -0.14300
F484        F  0.41860524  0.12455289  0.08050900    -0.15700
C485        C  0.63043561  0.85976649  0.98714464     0.14400
C486        C  0.65278514  0.85736735  0.00633262     0.01300
C487        C  0.68644382  0.86369648  0.00220449     0.16300
C488        C  0.69768196  0.87187134  0.97927509     0.25700
C489        C  0.67549090  0.87349721  0.95982382    -0.40600
C490        C  0.64164962  0.86765131  0.96410564     0.32800
C491        C  0.64134145  0.84734580  0.03052088     0.01400
F492        F  0.70874958  0.86070503  0.02025221    -0.12900
F493        F  0.61929541  0.86944458  0.94601414    -0.13400
C494        C  0.62509243  0.81712289  0.03383189     0.16300
C495        C  0.61629618  0.80659965  0.05684221     0.25700
C496        C  0.62387140  0.82603197  0.07713211    -0.40600
C497        C  0.63936250  0.85677433  0.07361359     0.32700
C498        C  0.64792100  0.86728455  0.05057082     0.14400
F499        F  0.61891476  0.79707269  0.01482977    -0.12900
F500        F  0.64696634  0.87657529  0.09247483    -0.13400
F501        F  0.60114657  0.77695534  0.05919227    -0.15700
F502        F  0.66292274  0.89694923  0.04783382    -0.14300
F503        F  0.59767150  0.85450048  0.99074075    -0.14300
F504        F  0.73055563  0.87690615  0.97604073    -0.15700
C505        C  0.63679097  0.01119659  0.86353367     0.14400
C506        C  0.62931614  0.02913156  0.88439649     0.01300
C507        C  0.64500847  0.02106352  0.90606391     0.16300
C508        C  0.66607532  0.99374670  0.90717044     0.25700
C509        C  0.67113015  0.97414873  0.88669433    -0.40600
C510        C  0.65734943  0.98370527  0.86471478     0.32800
C511        C  0.60104694  0.05200648  0.88419081     0.01400
F512        F  0.63770169  0.03783922  0.92648202    -0.12900
F513        F  0.66265138  0.96549667  0.84461680    -0.13400
C514        C  0.56940181  0.03928610  0.87989932     0.16300
C515        C  0.54208004  0.06005557  0.87918260     0.25700
C516        C  0.54577128  0.09424259  0.88281150    -0.40600
C517        C  0.57762207  0.10694471  0.88746320     0.32700
C518        C  0.60506424  0.08588049  0.88818978     0.14400
F519        F  0.56489939  0.00639812  0.87676999    -0.12900
F520        F  0.58232118  0.13965845  0.89119206    -0.13400
F521        F  0.51192323  0.04634592  0.87536078    -0.15700
F522        F  0.63554937  0.09853094  0.89248111    -0.14300
F523        F  0.62235269  0.01910267  0.84234288    -0.14300
F524        F  0.67896991  0.98465989  0.92862833    -0.15700
C525        C  0.65401257  0.55804053  0.48432640     0.14400
C526        C  0.65104033  0.57853250  0.50453727     0.01300
C527        C  0.63872060  0.61062621  0.50170152     0.16300
C528        C  0.63028030  0.62238910  0.47899887     0.25700
C529        C  0.63429580  0.60233968  0.45851360    -0.40600
C530        C  0.64579105  0.56980233  0.46152749     0.32800
C531        C  0.66236672  0.56736118  0.52843328     0.01400
F532        F  0.63612262  0.63116363  0.52087261    -0.12900
F533        F  0.64928949  0.54927774  0.44243476    -0.13400
C534        C  0.69540479  0.55787611  0.53191027     0.16300
C535        C  0.70720390  0.55107106  0.55493593     0.25700
C536        C  0.68617046  0.55390268  0.57502166    -0.40600
C537        C  0.65264978  0.56190533  0.57127528     0.32700
C538        C  0.64091314  0.56849141  0.54821986     0.14400
F539        F  0.71675055  0.55678095  0.51312134    -0.12900
F540        F  0.63115078  0.56390875  0.58993200    -0.13400
F541        F  0.73954578  0.54294714  0.55754708    -0.15700
F542        F  0.60859391  0.57648153  0.54523246    -0.14300
F543        F  0.66497768  0.52661057  0.48667822    -0.14300
F544        F  0.61922375  0.65384128  0.47710605    -0.15700
C545        C  0.38960194  0.37903179  0.49416194     0.14400
C546        C  0.42236913  0.36872825  0.49743633     0.01300
C547        C  0.44309337  0.36544647  0.47734266     0.16300
C548        C  0.43096255  0.37157162  0.45423352     0.25700
C549        C  0.39770996  0.38094219  0.45079502    -0.40600
C550        C  0.37736572  0.38508348  0.47116888     0.32800
C551        C  0.43369220  0.35870707  0.52161778     0.01400
F552        F  0.47503231  0.35594167  0.48011522    -0.12900
F553        F  0.34516565  0.39396435  0.46894863    -0.13400
C554        C  0.44171622  0.32565371  0.52598490     0.16300
C555        C  0.44856725  0.31493487  0.54924993     0.25700
C556        C  0.44743386  0.33710014  0.56876516    -0.40600
C557        C  0.44051138  0.37053379  0.56419953     0.32700
C558        C  0.43369209  0.38119778  0.54082105     0.14400
F559        F  0.44120555  0.30330369  0.50783191    -0.12900
F560        F  0.44013348  0.39290860  0.58232758    -0.13400
F561        F  0.45473052  0.28242665  0.55272441    -0.15700
F562        F  0.42666000  0.41343970  0.53692816    -0.14300
F563        F  0.36888564  0.38174401  0.51323600    -0.14300
F564        F  0.45172219  0.36787103  0.43528024    -0.15700
C565        C  0.45205631  0.26275453  0.74516230     0.14400
C566        C  0.47302739  0.23560288  0.74883848     0.01300
C567        C  0.49079468  0.22278330  0.72929170     0.16300
C568        C  0.48735803  0.23642933  0.70644130     0.25700
C569        C  0.46619971  0.26353420  0.70257572    -0.40600
C570        C  0.44874296  0.27667575  0.72230417     0.32800
C571        C  0.47547086  0.21979284  0.77278656     0.01400
F572        F  0.51179550  0.19705473  0.73237037    -0.12900
F573        F  0.42783905  0.30252690  0.71946695    -0.13400
C574        C  0.46792511  0.18622666  0.77542412     0.16300
C575        C  0.46909340  0.17130786  0.79796797     0.25700
C576        C  0.47749712  0.18971413  0.81857390    -0.40600
C577        C  0.48597812  0.22319716  0.81577683     0.32700
C578        C  0.48495960  0.23803195  0.79310699     0.14400
F579        F  0.45827639  0.16802122  0.75620699    -0.12900
F580        F  0.49435277  0.24195391  0.83501734    -0.13400
F581        F  0.46138782  0.13884093  0.79956045    -0.15700
F582        F  0.49321322  0.27030545  0.79099932    -0.14300
F583        F  0.43396048  0.27519292  0.76359322    -0.14300
F584        F  0.50507193  0.22308878  0.68815107    -0.15700
C585        C  0.60224816  0.35518596  0.63238705     0.14400
C586        C  0.60428823  0.38276091  0.64760032     0.01300
C587        C  0.57702737  0.39104166  0.66204129     0.16300
C588        C  0.54783188  0.37291207  0.66061401     0.25700
C589        C  0.54509356  0.34634580  0.64445304    -0.40600
C590        C  0.57287560  0.33715149  0.63076399     0.32800
C591        C  0.63312985  0.40513481  0.64662940     0.01400
F592        F  0.57796435  0.41787632  0.67661691    -0.12900
F593        F  0.57122563  0.31170535  0.61497519    -0.13400
C594        C  0.64200751  0.41981156  0.62471241     0.16300
C595        C  0.66504484  0.44536255  0.62421294     0.25700
C596        C  0.67891252  0.45703334  0.64560883    -0.40600
C597        C  0.67146927  0.44147053  0.66735469     0.32700
C598        C  0.64908637  0.41525500  0.66782823     0.14400
F599        F  0.62629823  0.41141591  0.60407874    -0.12900
F600        F  0.68477666  0.45263633  0.68818877    -0.13400
F601        F  0.67153902  0.46074599  0.60312890    -0.15700
F602        F  0.64175078  0.40081171  0.68910974    -0.14300
F603        F  0.62845414  0.34628415  0.61859830    -0.14300
F604        F  0.52202549  0.38185377  0.67479742    -0.15700
C605        C  0.79986024  0.68329967  0.87564623     0.14400
C606        C  0.79067268  0.69664828  0.89789555     0.01300
C607        C  0.79535932  0.67829570  0.91891317     0.16300
C608        C  0.80956742  0.64693503  0.91769532     0.25700
C609        C  0.81939009  0.63390446  0.89546330    -0.40600
C610        C  0.81432975  0.65215774  0.87444768     0.32800
C611        C  0.77691634  0.73010590  0.89906199     0.01400
F612        F  0.78715611  0.69123623  0.94058711    -0.12900
F613        F  0.82324898  0.63966619  0.85277405    -0.13400
C614        C  0.74311762  0.73483160  0.90333790     0.16300
C615        C  0.72972554  0.76652666  0.90290512     0.25700
C616        C  0.75013940  0.79394225  0.89844959    -0.40600
C617        C  0.78420457  0.78909629  0.89476730     0.32700
C618        C  0.79742175  0.75734413  0.89491328     0.14400
F619        F  0.72300744  0.70863868  0.90731420    -0.12900
F620        F  0.80451254  0.81492056  0.89009498    -0.13400
F621        F  0.69684417  0.77038423  0.90692304    -0.15700
F622        F  0.83021081  0.75306331  0.89074101    -0.14300
F623        F  0.79484738  0.70054254  0.85513698    -0.14300
F624        F  0.81522725  0.62998681  0.93824104    -0.15700
C625        C  0.90316562  0.55758415  0.00036425     0.14400
C626        C  0.92611946  0.58313333  0.00366308     0.01300
C627        C  0.93954254  0.59890460  0.98348819     0.16300
C628        C  0.92912813  0.59030925  0.96043371     0.25700
C629        C  0.90519531  0.56549214  0.95707698    -0.40600
C630        C  0.89291178  0.54871469  0.97731317     0.32800
C631        C  0.93418481  0.59498418  0.02809333     0.01400
F632        F  0.96237733  0.62314962  0.98615535    -0.12900
F633        F  0.87047584  0.52406620  0.97492434    -0.13400
C634        C  0.94621200  0.57330721  0.04568383     0.16300
C635        C  0.95222575  0.58459251  0.06902045     0.25700
C636        C  0.94689717  0.61785393  0.07494479    -0.40600
C637        C  0.93524983  0.63954311  0.05723245     0.32700
C638        C  0.92867472  0.62815009  0.03412437     0.14400
F639        F  0.95239303  0.54129974  0.04019509    -0.12900
F640        F  0.92885009  0.67158505  0.06253151    -0.13400
F641        F  0.96374064  0.56316062  0.08568702    -0.15700
F642        F  0.91579754  0.64935264  0.01781545    -0.14300
F643        F  0.88948377  0.54217996  0.01953832    -0.14300
F644        F  0.94168222  0.60720547  0.94152474    -0.15700
C645        C  0.78282830  0.51794797  0.79982999     0.14400
C646        C  0.79891469  0.53154631  0.77990982     0.01300
C647        C  0.82988537  0.54640976  0.78277656     0.16300
C648        C  0.84450579  0.54827243  0.80538662     0.25700
C649        C  0.82836224  0.53510814  0.82566312    -0.40600
C650        C  0.79744773  0.51955185  0.82254311     0.32800
C651        C  0.78310053  0.53159487  0.75613781     0.01400
F652        F  0.84555856  0.56001802  0.76367478    -0.12900
F653        F  0.78110819  0.50617461  0.84142840    -0.13400
C654        C  0.75759827  0.55392862  0.75122481     0.16300
C655        C  0.74475558  0.55644905  0.72804429     0.25700
C656        C  0.75727601  0.53655557  0.70935503    -0.40600
C657        C  0.78232558  0.51351496  0.71461616     0.32700
C658        C  0.79515701  0.51118550  0.73781566     0.14400
F659        F  0.74598136  0.57414295  0.76874218    -0.12900
F660        F  0.79442593  0.49314382  0.69737825    -0.13400
F661        F  0.72082060  0.57913500  0.72381539    -0.15700
F662        F  0.81960452  0.48918463  0.74241414    -0.14300
F663        F  0.75290322  0.50324208  0.79725434    -0.14300
F664        F  0.87415211  0.56369384  0.80737015    -0.15700
C665        C  0.33912623  0.23383667  0.91025001     0.14400
C666        C  0.31792081  0.23278202  0.89028726     0.01300
C667        C  0.32931710  0.21918140  0.86863120     0.16300
C668        C  0.36048853  0.20477638  0.86735772     0.25700
C669        C  0.38110631  0.20432334  0.88757855    -0.40600
C670        C  0.37073716  0.21986652  0.90883671     0.32800
C671        C  0.28326214  0.24395907  0.89201583     0.01400
F672        F  0.30986160  0.21925944  0.84879863    -0.12900
F673        F  0.39028417  0.21960762  0.92861190    -0.13400
C674        C  0.27563582  0.27680682  0.89765108     0.16300
C675        C  0.24287207  0.28773906  0.89674606     0.25700
C676        C  0.21732620  0.26587777  0.89032264    -0.40600
C677        C  0.22490914  0.23270888  0.88570310     0.32700
C678        C  0.25758345  0.22186471  0.88655475     0.14400
F679        F  0.29999113  0.29852539  0.90318374    -0.12900
F680        F  0.20088907  0.21105156  0.87931735    -0.13400
F681        F  0.23611687  0.31965546  0.90218587    -0.15700
F682        F  0.26429446  0.18977757  0.88163072    -0.14300
F683        F  0.32860363  0.24676265  0.93139393    -0.14300
F684        F  0.37044366  0.19086700  0.84638468    -0.15700
C685        C  0.17216824  0.39765966  0.02665066     0.14400
C686        C  0.15150437  0.37062204  0.02188474     0.01300
C687        C  0.13867994  0.35239743  0.04113795     0.16300
C688        C  0.14762185  0.35996149  0.06469886     0.25700
C689        C  0.16970624  0.38594876  0.06951172    -0.40600
C690        C  0.18129551  0.40522359  0.05026962     0.32800
C691        C  0.14576908  0.35926063  0.99695987     0.01400
F692        F  0.11821925  0.32648788  0.03701802    -0.12900
F693        F  0.20192681  0.43103131  0.05424647    -0.13400
C694        C  0.15607742  0.32753241  0.99018826     0.16300
C695        C  0.15024182  0.31585415  0.96704024     0.25700
C696        C  0.13442669  0.33584669  0.95001838    -0.40600
C697        C  0.12474298  0.36792961  0.95652627     0.32700
C698        C  0.13018628  0.37949736  0.97993262     0.14400
F699        F  0.17242085  0.30800168  0.00596176    -0.12900
F700        F  0.10919122  0.38764198  0.94046988    -0.13400
F701        F  0.16105297  0.28525992  0.96102073    -0.15700
F702        F  0.11963536  0.41009723  0.98612826    -0.14300
F703        F  0.18484653  0.41570398  0.00836176    -0.14300
F704        F  0.13607639  0.34057642  0.08265186    -0.15700
C705        C  0.92154721  0.40308291  0.88537264     0.14400
C706        C  0.95602149  0.40499674  0.88318447     0.01300
C707        C  0.97158029  0.43581117  0.88344563     0.16300
C708        C  0.95305343  0.46452968  0.88545422     0.25700
C709        C  0.91834925  0.46306850  0.88719977    -0.40600
C710        C  0.90272710  0.43198960  0.88734953     0.32800
C711        C  0.97681069  0.37543615  0.88074626     0.01400
F712        F  0.00501951  0.43801559  0.88192973    -0.12900
F713        F  0.86933078  0.42956179  0.88887785    -0.13400
C714        C  0.99351161  0.36987670  0.85904815     0.16300
C715        C  0.02105370  0.34922038  0.85840121     0.25700
C716        C  0.03191576  0.33357954  0.87939151    -0.40600
C717        C  0.01316660  0.33647626  0.90052523     0.32700
C718        C  0.98579945  0.35754532  0.90123111     0.14400
F719        F  0.98484106  0.38674795  0.83902454    -0.12900
F720        F  0.02346279  0.32189052  0.92108779    -0.13400
F721        F  0.03837254  0.34609073  0.83765084    -0.15700
F722        F  0.97020321  0.36305850  0.92243021    -0.14300
F723        F  0.90619474  0.37336438  0.88519027    -0.14300
F724        F  0.96932935  0.49377105  0.88602658    -0.15700
C725        C  0.24470224  0.22975690  0.61798960     0.14400
C726        C  0.27316376  0.21103822  0.62280733     0.01300
C727        C  0.26978017  0.17728354  0.62771796     0.16300
C728        C  0.23847991  0.16278159  0.62864472     0.25700
C729        C  0.20976555  0.18191293  0.62516945    -0.40600
C730        C  0.21333769  0.21548067  0.61937320     0.32800
C731        C  0.30599832  0.22719703  0.62427844     0.01400
F732        F  0.29669841  0.15854027  0.63269258    -0.12900
F733        F  0.18651384  0.23488401  0.61564238    -0.13400
C734        C  0.31033950  0.25473927  0.63926245     0.16300
C735        C  0.34112070  0.26998552  0.64113181     0.25700
C736        C  0.36860347  0.25753242  0.62850625    -0.40600
C737        C  0.36435414  0.22974283  0.61364593     0.32700
C738        C  0.33326579  0.21491965  0.61138584     0.14400
F739        F  0.28488522  0.26642861  0.65270219    -0.12900
F740        F  0.39010962  0.21717302  0.60096450    -0.13400
F741        F  0.34406291  0.29651694  0.65584950    -0.15700
F742        F  0.32972534  0.18883465  0.59632608    -0.14300
F743        F  0.24724989  0.26213646  0.61224359    -0.14300
F744        F  0.23643008  0.13007706  0.63344330    -0.15700
C745        C  0.18660595  0.06261662  0.49492131     0.14400
C746        C  0.15309046  0.07066606  0.49776576     0.01300
C747        C  0.13235349  0.07065142  0.47758869     0.16300
C748        C  0.14511057  0.06335855  0.45480823     0.25700
C749        C  0.17898849  0.05607671  0.45178289    -0.40600
C750        C  0.19944344  0.05535091  0.47223988     0.32800
C751        C  0.14064418  0.08104376  0.52162481     0.01400
F752        F  0.09974383  0.07787003  0.47995708    -0.12900
F753        F  0.23224447  0.04881660  0.47031232    -0.13400
C754        C  0.12949522  0.11341623  0.52520828     0.16300
C755        C  0.12207807  0.12480880  0.54829006     0.25700
C756        C  0.12577080  0.10399205  0.56835498    -0.40600
C757        C  0.13528446  0.07097863  0.56447498     0.32700
C758        C  0.14268154  0.05969163  0.54133627     0.14400
F759        F  0.12758665  0.13463371  0.50647794    -0.12900
F760        F  0.13818932  0.04969657  0.58308722    -0.13400
F761        F  0.11282403  0.15674741  0.55098737    -0.15700
F762        F  0.15256322  0.02801562  0.53819511    -0.14300
F763        F  0.20731491  0.06319497  0.51406623    -0.14300
F764        F  0.12425837  0.06364615  0.43575029    -0.15700
C765        C  0.10345745  0.21246589  0.79115578     0.14400
C766        C  0.11867639  0.22797783  0.77158281     0.01300
C767        C  0.13425701  0.25851550  0.77506616     0.16300
C768        C  0.13475591  0.27329722  0.79777722     0.25700
C769        C  0.11957872  0.25780004  0.81756120    -0.40600
C770        C  0.10383789  0.22716213  0.81388777     0.32800
C771        C  0.11825689  0.21232815  0.74751962     0.01400
F772        F  0.14962860  0.27374557  0.75649858    -0.12900
F773        F  0.08862379  0.21129620  0.83223213    -0.13400
C774        C  0.10282913  0.22812688  0.72817572     0.16300
C775        C  0.10248546  0.21351791  0.70541777     0.25700
C776        C  0.11769682  0.18267374  0.70147619    -0.40600
C777        C  0.13310036  0.16688195  0.72103545     0.32700
C778        C  0.13331073  0.18157737  0.74378256     0.14400
F779        F  0.08763586  0.25762284  0.73142415    -0.12900
F780        F  0.14832542  0.13732388  0.71822801    -0.13400
F781        F  0.08717020  0.22972568  0.68729752    -0.15700
F782        F  0.14884911  0.16604441  0.76212547    -0.14300
F783        F  0.08774567  0.18319720  0.78815924    -0.14300
F784        F  0.15053737  0.30259596  0.80034650    -0.15700
C785        C  0.80228461  0.67648078  0.64495597     0.14400
C786        C  0.78554991  0.69975155  0.63078339     0.01300
C787        C  0.75698395  0.69024306  0.61827456     0.16300
C788        C  0.74486011  0.65814702  0.62040070     0.25700
C789        C  0.76140312  0.63507121  0.63478318    -0.40600
C790        C  0.79042699  0.64425279  0.64677635     0.32800
C791        C  0.79761670  0.73406894  0.62969136     0.01400
F792        F  0.74101484  0.71198669  0.60390764    -0.12900
F793        F  0.80639245  0.62244785  0.66109839    -0.13400
C794        C  0.82983730  0.74061443  0.62168517     0.16300
C795        C  0.84277924  0.77238851  0.62332894     0.25700
C796        C  0.82356262  0.79822225  0.63275037    -0.40600
C797        C  0.79068566  0.79211257  0.63951195     0.32700
C798        C  0.77783506  0.76015246  0.63811322     0.14400
F799        F  0.84894356  0.71604287  0.61264052    -0.12900
F800        F  0.77176625  0.81657257  0.64890789    -0.13400
F801        F  0.87425991  0.77790894  0.61588585    -0.15700
F802        F  0.74672261  0.75432690  0.64619431    -0.14300
F803        F  0.82947365  0.68533783  0.65768874    -0.14300
F804        F  0.71721812  0.64938293  0.60815222    -0.15700
C805        C  0.94603183  0.86087514  0.54982796     0.14400
C806        C  0.92539139  0.86827600  0.53036048     0.01300
C807        C  0.89473091  0.88333359  0.53459965     0.16300
C808        C  0.88409835  0.88943338  0.55803784     0.25700
C809        C  0.90396947  0.88042916  0.57776197    -0.40600
C810        C  0.93549911  0.86689473  0.57331682     0.32800
C811        C  0.93430899  0.85735374  0.50589440     0.01400
F812        F  0.87422779  0.89045889  0.51605737    -0.12900
F813        F  0.95590898  0.85861854  0.59164447    -0.13400
C814        C  0.93811856  0.82360606  0.50113489     0.16300
C815        C  0.94437779  0.81256824  0.47785773     0.25700
C816        C  0.94670066  0.83511736  0.45878480    -0.40600
C817        C  0.94333110  0.86902270  0.46363928     0.32700
C818        C  0.93721261  0.88003299  0.48703739     0.14400
F819        F  0.93436727  0.80115580  0.51894095    -0.12900
F820        F  0.94610644  0.89153660  0.44579331    -0.13400
F821        F  0.94668169  0.77963862  0.47388529    -0.15700
F822        F  0.93406348  0.91281716  0.49130947    -0.14300
F823        F  0.97615015  0.84703570  0.54605804    -0.14300
F824        F  0.85370769  0.90291029  0.56130165    -0.15700
C825        C  0.77748620  0.89218068  0.73604822     0.14400
C826        C  0.79620755  0.88556506  0.75664893     0.01300
C827        C  0.83013358  0.87885358  0.75427484     0.16300
C828        C  0.84520594  0.87912033  0.73165902     0.25700
C829        C  0.82658175  0.88625913  0.71097195    -0.40600
C830        C  0.79245528  0.89255950  0.71345970     0.32800
C831        C  0.78039412  0.88626736  0.78062080     0.01400
F832        F  0.84861490  0.87169958  0.77389303    -0.12900
F833        F  0.77329569  0.89868521  0.69399717    -0.13400
C834        C  0.75399855  0.86503781  0.78594900     0.16300
C835        C  0.73889015  0.86597693  0.80851696     0.25700
C836        C  0.75003246  0.88811901  0.82628485    -0.40600
C837        C  0.77639637  0.90949445  0.82078969     0.32700
C838        C  0.79133940  0.90859014  0.79816962     0.14400
F839        F  0.74332593  0.84283020  0.76943531    -0.12900
F840        F  0.78754069  0.93161917  0.83718351    -0.13400
F841        F  0.71397127  0.84450139  0.81312631    -0.15700
F842        F  0.81622422  0.92995971  0.79323279    -0.14300
F843        F  0.74469387  0.89887379  0.73785266    -0.14300
F844        F  0.87809511  0.87284075  0.73011659    -0.15700
C845        C  0.92159137  0.03028990  0.64608191     0.14400
C846        C  0.95479757  0.02895284  0.65330572     0.01300
C847        C  0.96797203  0.99897787  0.66130966     0.16300
C848        C  0.94863934  0.97060050  0.66164685     0.25700
C849        C  0.91551285  0.97139069  0.65376073    -0.40600
C850        C  0.90202625  0.00177130  0.64635200     0.32800
C851        C  0.97696033  0.05776556  0.65109455     0.01400
F852        F  0.00027341  0.99679325  0.66774306    -0.12900
F853        F  0.87020321  0.00384101  0.63882804    -0.13400
C854        C  0.99463588  0.06895705  0.67121367     0.16300
C855        C  0.02156287  0.09009506  0.66833987     0.25700
C856        C  0.03067703  0.10090705  0.64539679    -0.40600
C857        C  0.01129772  0.09214190  0.62552039     0.32700
C858        C  0.98466664  0.07046984  0.62832005     0.14400
F859        F  0.98703736  0.05772552  0.69345880    -0.12900
F860        F  0.02006752  0.10203204  0.60316168    -0.13400
F861        F  0.03971120  0.09885576  0.68780910    -0.15700
F862        F  0.96835568  0.05960915  0.60855922    -0.14300
F863        F  0.90826818  0.05912221  0.63850310    -0.14300
F864        F  0.96303019  0.94210133  0.66889597    -0.15700
loop_ 
_geom_bond_atom_site_label_1 
_geom_bond_atom_site_label_2 
_geom_bond_distance 
_geom_bond_site_symmetry_2 
_ccdc_geom_bond_type 
O1            V9   1.908       .  S
O1           C11   1.267       .  A
O2            V9   1.907       .  S
O2           C12   1.266       .  A
O3            V9   1.894       .  S
O3           C13   1.264       .  A
O4            V9   1.894       .  S
O4           C14   1.264       .  A
O5           V10   1.901       .  S
O5           C14   1.266       .  A
O6           V10   1.906       .  S
O6           C13   1.266       .  A
O7           V10   1.888       .  S
O7           C12   1.262       .  A
O8           V10   1.887       .  S
O8           C11   1.262       .  A
V9           V10   2.084       .  T
C11         C849   1.487       .  S
C12         C796   1.472       .  S
C13         C829   1.485       .  S
C14         C809   1.485       .  S
O15          V23   1.905       .  S
O15          C25   1.264       .  A
O16          V23   1.902       .  S
O16          C26   1.266       .  A
O17          V23   1.898       .  S
O17          C27   1.264       .  A
O18          V23   1.901       .  S
O18          C28   1.266       .  A
O19          V24   1.902       .  S
O19          C28   1.266       .  A
O20          V24   1.905       .  S
O20          C27   1.266       .  A
O21          V24   1.893       .  S
O21          C26   1.263       .  A
O22          V24   1.892       .  S
O22          C25   1.262       .  A
V23          V24   2.084       .  T
C25         C856   1.467       .  S
C26         C729   1.485       .  S
C27         C756   1.489       .  S
C28         C776   1.491       .  S
O29          V37   1.903       .  S
O29          C39   1.264       .  A
O30          V37   1.898       .  S
O30          C40   1.265       .  A
O31          V37   1.895       .  S
O31          C41   1.264       .  A
O32          V37   1.900       .  S
O32          C42   1.265       .  A
O33          V38   1.904       .  S
O33          C42   1.266       .  A
O34          V38   1.906       .  S
O34          C41   1.265       .  A
O35          V38   1.895       .  S
O35          C40   1.263       .  A
O36          V38   1.891       .  S
O36          C39   1.263       .  A
V37          V38   2.082       .  T
C39         C716   1.469       .  S
C40         C676   1.473       .  S
C41         C696   1.475       .  S
C42         C769   1.490       .  S
O43          V51   1.904       .  S
O43          C53   1.265       .  A
O44          V51   1.903       .  S
O44          C54   1.264       .  A
O45          V51   1.901       .  S
O45          C55   1.265       .  A
O46          V51   1.897       .  S
O46          C56   1.265       .  A
O47          V52   1.897       .  S
O47          C56   1.264       .  A
O48          V52   1.893       .  S
O48          C55   1.264       .  A
O49          V52   1.889       .  S
O49          C54   1.261       .  A
O50          V52   1.887       .  S
O50          C53   1.263       .  A
V51          V52   2.084       .  T
C53         C709   1.480       .  S
C54         C609   1.464       .  S
C55         C649   1.485       .  S
C56         C629   1.483       .  S
O57          V65   1.902       .  S
O57          C67   1.265       .  A
O58          V65   1.903       .  S
O58          C68   1.265       .  A
O59          V65   1.895       .  S
O59          C69   1.264       .  A
O60          V65   1.896       .  S
O60          C70   1.264       .  A
O61          V66   1.908       .  S
O61          C70   1.267       .  A
O62          V66   1.909       .  S
O62          C69   1.267       .  A
O63          V66   1.891       .  S
O63          C68   1.263       .  A
O64          V66   1.890       .  S
O64          C67   1.263       .  A
V65          V66   2.084       .  T
C67         C589   1.479       .  S
C68         C736   1.482       .  S
C69         C556   1.487       .  S
C70         C569   1.489       .  S
O71          V79   1.901       .  S
O71          C81   1.263       .  A
O72          V79   1.903       .  S
O72          C82   1.265       .  A
O73          V79   1.900       .  S
O73          C83   1.265       .  A
O74          V79   1.901       .  S
O74          C84   1.265       .  A
O75          V80   1.896       .  S
O75          C84   1.265       .  A
O76          V80   1.897       .  S
O76          C83   1.265       .  A
O77          V80   1.893       .  S
O77          C82   1.262       .  A
O78          V80   1.889       .  S
O78          C81   1.261       .  A
V79          V80   2.083       .  T
C81         C596   1.460       .  S
C82         C789   1.467       .  S
C83         C656   1.483       .  S
C84         C536   1.485       .  S
O85          V93   1.902       .  S
O85          C95   1.263       .  A
O86          V93   1.898       .  S
O86          C96   1.265       .  A
O87          V93   1.901       .  S
O87          C97   1.265       .  A
O88          V93   1.898       .  S
O88          C98   1.265       .  A
O89          V94   1.901       .  S
O89          C98   1.266       .  A
O90          V94   1.899       .  S
O90          C97   1.265       .  A
O91          V94   1.892       .  S
O91          C96   1.263       .  A
O92          V94   1.891       .  S
O92          C95   1.263       .  A
V93          V94   2.084       .  T
C95         C509   1.466       .  S
C96         C616   1.473       .  S
C97         C836   1.484       .  S
C98         C489   1.485       .  S
O99         V107   1.904       .  S
O99         C109   1.265       .  A
O100        V107   1.904       .  S
O100        C110   1.265       .  A
O101        V107   1.904       .  S
O101        C111   1.266       .  A
O102        V107   1.909       .  S
O102        C112   1.267       .  A
O103        V108   1.895       .  S
O103        C112   1.264       .  A
O104        V108   1.898       .  S
O104        C111   1.264       .  A
O105        V108   1.886       .  S
O105        C110   1.262       .  A
O106        V108   1.888       .  S
O106        C109   1.263       .  A
V107        V108   2.083       .  T
C109        C516   1.483       .  S
C110        C669   1.468       .  S
C111        C476   1.477       .  S
C112        C576   1.489       .  S
O113        V121   1.907       .  S
O113        C123   1.265       .  A
O114        V121   1.904       .  S
O114        C124   1.266       .  A
O115        V121   1.895       .  S
O115        C125   1.264       .  A
O116        V121   1.899       .  S
O116        C126   1.265       .  A
O117        V122   1.904       .  S
O117        C126   1.266       .  A
O118        V122   1.908       .  S
O118        C125   1.267       .  A
O119        V122   1.895       .  S
O119        C124   1.263       .  A
O120        V122   1.891       .  S
O120        C123   1.263       .  A
V121        V122   2.084       .  T
C123        C449   1.472       .  S
C124        C409   1.488       .  S
C125        C549   1.490       .  S
C126        C436   1.488       .  S
O127        V135   1.911       .  S
O127        C137   1.267       .  A
O128        V135   1.908       .  S
O128        C138   1.267       .  A
O129        V135   1.901       .  S
O129        C139   1.265       .  A
O130        V135   1.899       .  S
O130        C140   1.265       .  A
O131        V136   1.900       .  S
O131        C140   1.265       .  A
O132        V136   1.899       .  S
O132        C139   1.265       .  A
O133        V136   1.888       .  S
O133        C138   1.262       .  A
O134        V136   1.884       .  S
O134        C137   1.262       .  A
V135        V136   2.083       .  T
C137        C456   1.484       .  S
C138        C369   1.486       .  S
C139        C396   1.488       .  S
C140        C529   1.486       .  S
O141        V149   1.911   1_455  S
O141        C151   1.266       .  A
O142        V149   1.906       .  S
O142        C152   1.267       .  A
O143        V149   1.891       .  S
O143        C153   1.263       .  A
O144        V149   1.890       .  S
O144        C154   1.263       .  A
O145        V150   1.903       .  S
O145        C154   1.265       .  A
O146        V150   1.900       .  S
O146        C153   1.266       .  A
O147        V150   1.894       .  S
O147        C152   1.262       .  A
O148        V150   1.889       .  S
O148        C151   1.262   1_655  A
V149        V150   2.083       .  T
C151        C349   1.472       .  S
C152        C309   1.474       .  S
C153        C336   1.482       .  S
C154        C636   1.474       .  S
O155        V163   1.913       .  S
O155        C165   1.267       .  A
O156        V163   1.916       .  S
O156        C166   1.269       .  A
O157        V163   1.901       .  S
O157        C167   1.265       .  A
O158        V163   1.902       .  S
O158        C168   1.265       .  A
O159        V164   1.900       .  S
O159        C168   1.265       .  A
O160        V164   1.899       .  S
O160        C167   1.265       .  A
O161        V164   1.885       .  S
O161        C166   1.261       .  A
O162        V164   1.885       .  S
O162        C165   1.262       .  A
V163        V164   2.084       .  T
C165        C356   1.487       .  S
C166        C296   1.489       .  S
C167        C689   1.482       .  S
C168        C429   1.479       .  S
O169        V177   1.912       .  S
O169        C179   1.267       .  A
O170        V177   1.915       .  S
O170        C180   1.269       .  A
O171        V177   1.902       .  S
O171        C181   1.265       .  A
O172        V177   1.904       .  S
O172        C182   1.264       .  A
O173        V178   1.899       .  S
O173        C182   1.263       .  A
O174        V178   1.899       .  S
O174        C181   1.264       .  A
O175        V178   1.886       .  S
O175        C180   1.261       .  A
O176        V178   1.886       .  S
O176        C179   1.263       .  A
V177        V178   2.086       .  T
C179        C269   1.487   1_545  S
C180        C289   1.484       .  S
C181        C469   1.478       .  S
C182        C249   1.469       .  S
O183        V191   1.907       .  S
O183        C193   1.265       .  A
O184        V191   1.906       .  S
O184        C194   1.265       .  A
O185        V191   1.902       .  S
O185        C195   1.266       .  A
O186        V191   1.901       .  S
O186        C196   1.265       .  A
O187        V192   1.898       .  S
O187        C196   1.266       .  A
O188        V192   1.899       .  S
O188        C195   1.265       .  A
O189        V192   1.893       .  S
O189        C194   1.263       .  A
O190        V192   1.893       .  S
O190        C193   1.263       .  A
V191        V192   2.083       .  T
C193        C276   1.475       .  S
C194        C316   1.473       .  S
C195        C389   1.489       .  S
C196        C496   1.488       .  S
O197        V205   1.912   1_455  S
O197        C207   1.267       .  A
O198        V205   1.909       .  S
O198        C208   1.267       .  A
O199        V205   1.893       .  S
O199        C209   1.263       .  A
O200        V205   1.894       .  S
O200        C210   1.264       .  A
O201        V206   1.900       .  S
O201        C210   1.265       .  A
O202        V206   1.897       .  S
O202        C209   1.265       .  A
O203        V206   1.886       .  S
O203        C208   1.261       .  A
O204        V206   1.883       .  S
O204        C207   1.262   1_655  A
V205        V206   2.084       .  T
C207        C229   1.487       .  S
C208        C376   1.483       .  S
C209        C329   1.480       .  S
C210        C816   1.479       .  S
O211        V219   1.907   1_565  S
O211        C221   1.264       .  A
O212        V219   1.905       .  S
O212        C222   1.266       .  A
O213        V219   1.901       .  S
O213        C223   1.266       .  A
O214        V219   1.907       .  S
O214        C224   1.266       .  A
O215        V220   1.895       .  S
O215        C224   1.264       .  A
O216        V220   1.902       .  S
O216        C223   1.265       .  A
O217        V220   1.894       .  S
O217        C222   1.264       .  A
O218        V220   1.891       .  S
O218        C221   1.263   1_545  A
V219        V220   2.085       .  T
C221        C236   1.469       .  S
C222        C416   1.484       .  S
C223        C749   1.488       .  S
C224        C256   1.487       .  S
C225        C226   1.402       .  A
C225        C230   1.390       .  A
C225        F243   1.359       .  S
C226        C231   1.480       .  S
C226        C227   1.405       .  A
C227        C228   1.405       .  A
C227        F232   1.357       .  S
C228        C229   1.412       .  A
C228        F244   1.357       .  S
C229        C230   1.411       .  A
C230        F233   1.358       .  S
C231        C234   1.407       .  A
C231        C238   1.406       .  A
C234        C235   1.401       .  A
C234        F239   1.358       .  S
C235        C236   1.404       .  A
C235        F241   1.358       .  S
C236        C237   1.403       .  A
C237        C238   1.396       .  A
C237        F240   1.358       .  S
C238        F242   1.358       .  S
C245        C246   1.406       .  A
C245        C250   1.403       .  A
C245        F263   1.358   1_545  S
C246        C251   1.481       .  S
C246        C247   1.406       .  A
C247        C248   1.398       .  A
C247        F252   1.358       .  S
C248        C249   1.402       .  A
C248        F264   1.358       .  S
C249        C250   1.404       .  A
C250        F253   1.358   1_545  S
C251        C254   1.405       .  A
C251        C258   1.402       .  A
C254        C255   1.403       .  A
C254        F259   1.358       .  S
C255        C256   1.412       .  A
C255        F261   1.358       .  S
C256        C257   1.411       .  A
C257        C258   1.397       .  A
C257        F260   1.358       .  S
C258        F262   1.358       .  S
C265        C266   1.403       .  A
C265        C270   1.391       .  A
C265        F283   1.359       .  S
C266        C271   1.482       .  S
C266        C267   1.406       .  A
C267        C268   1.406       .  A
C267        F272   1.358       .  S
C268        C269   1.412       .  A
C268        F284   1.357       .  S
C269        C270   1.410       .  A
C270        F273   1.358   1_565  S
C271        C274   1.406       .  A
C271        C278   1.406       .  A
C274        C275   1.396       .  A
C274        F279   1.358       .  S
C275        C276   1.405       .  A
C275        F281   1.358       .  S
C276        C277   1.407       .  A
C277        C278   1.403       .  A
C277        F280   1.358       .  S
C278        F282   1.358       .  S
C285        C286   1.407       .  A
C285        C290   1.403       .  A
C285        F303   1.358       .  S
C286        C291   1.483       .  S
C286        C287   1.402       .  A
C287        C288   1.396       .  A
C287        F292   1.358       .  S
C288        C289   1.411       .  A
C288        F304   1.358       .  S
C289        C290   1.409       .  A
C290        F293   1.358       .  S
C291        C294   1.401       .  A
C291        C298   1.407       .  A
C294        C295   1.396       .  A
C294        F299   1.358       .  S
C295        C296   1.414       .  A
C295        F301   1.358       .  S
C296        C297   1.410       .  A
C297        C298   1.403       .  A
C297        F300   1.358       .  S
C298        F302   1.358       .  S
C305        C306   1.409       .  A
C305        C310   1.398       .  A
C305        F323   1.358       .  S
C306        C311   1.486       .  S
C306        C307   1.407       .  A
C307        C308   1.400       .  A
C307        F312   1.358       .  S
C308        C309   1.407       .  A
C308        F324   1.358       .  S
C309        C310   1.403       .  A
C310        F313   1.358       .  S
C311        C314   1.407       .  A
C311        C318   1.410       .  A
C314        C315   1.396       .  A
C314        F319   1.358       .  S
C315        C316   1.405       .  A
C315        F321   1.358       .  S
C316        C317   1.404       .  A
C317        C318   1.402       .  A
C317        F320   1.358       .  S
C318        F322   1.358       .  S
C325        C326   1.404       .  A
C325        C330   1.396       .  A
C325        F343   1.358       .  S
C326        C331   1.476       .  S
C326        C327   1.403       .  A
C327        C328   1.396       .  A
C327        F332   1.358   1_655  S
C328        C329   1.411       .  A
C328        F344   1.358   1_655  S
C329        C330   1.409       .  A
C330        F333   1.358       .  S
C331        C334   1.402       .  A
C331        C338   1.404       .  A
C334        C335   1.396       .  A
C334        F339   1.358       .  S
C335        C336   1.412       .  A
C335        F341   1.358       .  S
C336        C337   1.410       .  A
C337        C338   1.397       .  A
C337        F340   1.358       .  S
C338        F342   1.358       .  S
C345        C346   1.405       .  A
C345        C350   1.396       .  A
C345        F363   1.358       .  S
C346        C351   1.479       .  S
C346        C347   1.406       .  A
C347        C348   1.403       .  A
C347        F352   1.358       .  S
C348        C349   1.405       .  A
C348        F364   1.358       .  S
C349        C350   1.405       .  A
C350        F353   1.358       .  S
C351        C354   1.402       .  A
C351        C358   1.405       .  A
C354        C355   1.391       .  A
C354        F359   1.359       .  S
C355        C356   1.411       .  A
C355        F361   1.358       .  S
C356        C357   1.412       .  A
C357        C358   1.406       .  A
C357        F360   1.357       .  S
C358        F362   1.357       .  S
C365        C366   1.404       .  A
C365        C370   1.400       .  A
C365        F383   1.358       .  S
C366        C371   1.477       .  S
C366        C367   1.401       .  A
C367        C368   1.396       .  A
C367        F372   1.358       .  S
C368        C369   1.413       .  A
C368        F384   1.358       .  S
C369        C370   1.410       .  A
C370        F373   1.357       .  S
C371        C374   1.405       .  A
C371        C378   1.401       .  A
C374        C375   1.400       .  A
C374        F379   1.358       .  S
C375        C376   1.409       .  A
C375        F381   1.358       .  S
C376        C377   1.412       .  A
C377        C378   1.395       .  A
C377        F380   1.358       .  S
C378        F382   1.358       .  S
C385        C386   1.404       .  A
C385        C390   1.399       .  A
C385        F403   1.358       .  S
C386        C391   1.482       .  S
C386        C387   1.404       .  A
C387        C388   1.399       .  A
C387        F392   1.358       .  S
C388        C389   1.412       .  A
C388        F404   1.357       .  S
C389        C390   1.412       .  A
C390        F393   1.358       .  S
C391        C394   1.404       .  A
C391        C398   1.404       .  A
C394        C395   1.400       .  A
C394        F399   1.358       .  S
C395        C396   1.412       .  A
C395        F401   1.358       .  S
C396        C397   1.411       .  A
C397        C398   1.398       .  A
C397        F400   1.358       .  S
C398        F402   1.358       .  S
C405        C406   1.406       .  A
C405        C410   1.399       .  A
C405        F423   1.358       .  S
C406        C411   1.484       .  S
C406        C407   1.404       .  A
C407        C408   1.399       .  A
C407        F412   1.358       .  S
C408        C409   1.412       .  A
C408        F424   1.358       .  S
C409        C410   1.410       .  A
C410        F413   1.358       .  S
C411        C414   1.405       .  A
C411        C418   1.406       .  A
C414        C415   1.397       .  A
C414        F419   1.358       .  S
C415        C416   1.410       .  A
C415        F421   1.358       .  S
C416        C417   1.410       .  A
C417        C418   1.401       .  A
C417        F420   1.358       .  S
C418        F422   1.358       .  S
C425        C426   1.403       .  A
C425        C430   1.398       .  A
C425        F443   1.358       .  S
C426        C431   1.478       .  S
C426        C427   1.404       .  A
C427        C428   1.401       .  A
C427        F432   1.358       .  S
C428        C429   1.408       .  A
C428        F444   1.358       .  S
C429        C430   1.407       .  A
C430        F433   1.358       .  S
C431        C434   1.403       .  A
C431        C438   1.402       .  A
C434        C435   1.400       .  A
C434        F439   1.358       .  S
C435        C436   1.411       .  A
C435        F441   1.358       .  S
C436        C437   1.412       .  A
C437        C438   1.399       .  A
C437        F440   1.358       .  S
C438        F442   1.358       .  S
C445        C446   1.405       .  A
C445        C450   1.395       .  A
C445        F463   1.358       .  S
C446        C451   1.478       .  S
C446        C447   1.405       .  A
C447        C448   1.402       .  A
C447        F452   1.358       .  S
C448        C449   1.407       .  A
C448        F464   1.358       .  S
C449        C450   1.404       .  A
C450        F453   1.358       .  S
C451        C454   1.405       .  A
C451        C458   1.402       .  A
C454        C455   1.406       .  A
C454        F459   1.357       .  S
C455        C456   1.412       .  A
C455        F461   1.357       .  S
C456        C457   1.410       .  A
C457        C458   1.390       .  A
C457        F460   1.358       .  S
C458        F462   1.359       .  S
C465        C466   1.408       .  A
C465        C470   1.401       .  A
C465        F483   1.358       .  S
C466        C471   1.486   1_554  S
C466        C467   1.407       .  A
C467        C468   1.397       .  A
C467        F472   1.358       .  S
C468        C469   1.406       .  A
C468        F484   1.358       .  S
C469        C470   1.407       .  A
C470        F473   1.358       .  S
C471        C474   1.407       .  A
C471        C478   1.408       .  A
C474        C475   1.399       .  A
C474        F479   1.358       .  S
C475        C476   1.407       .  A
C475        F481   1.358       .  S
C476        C477   1.406       .  A
C477        C478   1.400       .  A
C477        F480   1.358       .  S
C478        F482   1.358   1_556  S
C485        C486   1.405   1_556  A
C485        C490   1.400       .  A
C485        F503   1.358       .  S
C486        C491   1.484       .  S
C486        C487   1.405       .  A
C487        C488   1.398   1_554  A
C487        F492   1.358       .  S
C488        C489   1.411       .  A
C488        F504   1.358       .  S
C489        C490   1.410       .  A
C490        F493   1.358       .  S
C491        C494   1.405       .  A
C491        C498   1.405       .  A
C494        C495   1.399       .  A
C494        F499   1.358       .  S
C495        C496   1.412       .  A
C495        F501   1.358       .  S
C496        C497   1.411       .  A
C497        C498   1.398       .  A
C497        F500   1.358       .  S
C498        F502   1.358       .  S
C505        C506   1.404       .  A
C505        C510   1.394   1_545  A
C505        F523   1.358       .  S
C506        C511   1.474       .  S
C506        C507   1.405       .  A
C507        C508   1.400   1_545  A
C507        F512   1.358       .  S
C508        C509   1.405       .  A
C508        F524   1.358       .  S
C509        C510   1.403       .  A
C510        F513   1.358       .  S
C511        C514   1.401       .  A
C511        C518   1.402       .  A
C514        C515   1.391       .  A
C514        F519   1.359       .  S
C515        C516   1.410       .  A
C515        F521   1.358       .  S
C516        C517   1.412       .  A
C517        C518   1.402       .  A
C517        F520   1.357       .  S
C518        F522   1.358       .  S
C525        C526   1.404       .  A
C525        C530   1.400       .  A
C525        F543   1.358       .  S
C526        C531   1.482       .  S
C526        C527   1.405       .  A
C527        C528   1.397       .  A
C527        F532   1.358       .  S
C528        C529   1.410       .  A
C528        F544   1.358       .  S
C529        C530   1.411       .  A
C530        F533   1.358       .  S
C531        C534   1.405       .  A
C531        C538   1.404       .  A
C534        C535   1.399       .  A
C534        F539   1.358       .  S
C535        C536   1.411       .  A
C535        F541   1.358       .  S
C536        C537   1.411       .  A
C537        C538   1.398       .  A
C537        F540   1.358       .  S
C538        F542   1.358       .  S
C545        C546   1.403       .  A
C545        C550   1.397       .  A
C545        F563   1.358       .  S
C546        C551   1.483       .  S
C546        C547   1.405       .  A
C547        C548   1.402       .  A
C547        F552   1.358       .  S
C548        C549   1.412       .  A
C548        F564   1.358       .  S
C549        C550   1.412       .  A
C550        F553   1.358       .  S
C551        C554   1.403       .  A
C551        C558   1.406       .  A
C554        C555   1.398       .  A
C554        F559   1.358       .  S
C555        C556   1.411       .  A
C555        F561   1.358       .  S
C556        C557   1.410       .  A
C557        C558   1.403       .  A
C557        F560   1.358       .  S
C558        F562   1.358       .  S
C565        C566   1.407       .  A
C565        C570   1.402       .  A
C565        F583   1.358       .  S
C566        C571   1.487       .  S
C566        C567   1.404       .  A
C567        C568   1.398       .  A
C567        F572   1.358       .  S
C568        C569   1.411       .  A
C568        F584   1.358       .  S
C569        C570   1.411       .  A
C570        F573   1.358       .  S
C571        C574   1.405       .  A
C571        C578   1.406       .  A
C574        C575   1.398       .  A
C574        F579   1.358       .  S
C575        C576   1.411       .  A
C575        F581   1.358       .  S
C576        C577   1.411       .  A
C577        C578   1.403       .  A
C577        F580   1.358       .  S
C578        F582   1.358       .  S
C585        C586   1.406       .  A
C585        C590   1.399       .  A
C585        F603   1.358       .  S
C586        C591   1.480       .  S
C586        C587   1.406       .  A
C587        C588   1.394       .  A
C587        F592   1.358       .  S
C588        C589   1.408       .  A
C588        F604   1.358       .  S
C589        C590   1.408       .  A
C590        F593   1.358       .  S
C591        C594   1.408       .  A
C591        C598   1.408       .  A
C594        C595   1.395       .  A
C594        F599   1.358       .  S
C595        C596   1.401       .  A
C595        F601   1.358       .  S
C596        C597   1.402       .  A
C597        C598   1.398       .  A
C597        F600   1.358       .  S
C598        F602   1.358       .  S
C605        C606   1.403       .  A
C605        C610   1.395       .  A
C605        F623   1.358       .  S
C606        C611   1.469       .  S
C606        C607   1.404       .  A
C607        C608   1.399       .  A
C607        F612   1.358       .  S
C608        C609   1.404       .  A
C608        F624   1.358       .  S
C609        C610   1.404       .  A
C610        F613   1.358       .  S
C611        C614   1.401       .  A
C611        C618   1.402       .  A
C614        C615   1.397       .  A
C614        F619   1.358       .  S
C615        C616   1.409       .  A
C615        F621   1.358       .  S
C616        C617   1.407       .  A
C617        C618   1.396       .  A
C617        F620   1.358       .  S
C618        F622   1.358       .  S
C625        C626   1.404       .  A
C625        C630   1.398   1_554  A
C625        F643   1.358       .  S
C626        C631   1.481       .  S
C626        C627   1.405   1_554  A
C627        C628   1.397       .  A
C627        F632   1.358       .  S
C628        C629   1.410       .  A
C628        F644   1.358       .  S
C629        C630   1.410       .  A
C630        F633   1.358       .  S
C631        C634   1.407       .  A
C631        C638   1.405       .  A
C634        C635   1.400       .  A
C634        F639   1.358       .  S
C635        C636   1.406       .  A
C635        F641   1.358       .  S
C636        C637   1.407       .  A
C637        C638   1.394       .  A
C637        F640   1.358       .  S
C638        F642   1.358       .  S
C645        C646   1.402       .  A
C645        C650   1.400       .  A
C645        F663   1.358       .  S
C646        C651   1.473       .  S
C646        C647   1.400       .  A
C647        C648   1.395       .  A
C647        F652   1.358       .  S
C648        C649   1.412       .  A
C648        F664   1.358       .  S
C649        C650   1.412       .  A
C650        F653   1.358       .  S
C651        C654   1.401       .  A
C651        C658   1.401       .  A
C654        C655   1.398       .  A
C654        F659   1.358       .  S
C655        C656   1.411       .  A
C655        F661   1.358       .  S
C656        C657   1.411       .  A
C657        C658   1.398       .  A
C657        F660   1.358       .  S
C658        F662   1.358       .  S
C665        C666   1.407       .  A
C665        C670   1.401       .  A
C665        F683   1.358       .  S
C666        C671   1.477       .  S
C666        C667   1.404       .  A
C667        C668   1.392       .  A
C667        F672   1.358       .  S
C668        C669   1.404       .  A
C668        F684   1.358       .  S
C669        C670   1.405       .  A
C670        F673   1.358       .  S
C671        C674   1.404       .  A
C671        C678   1.406       .  A
C674        C675   1.399       .  A
C674        F679   1.358       .  S
C675        C676   1.409       .  A
C675        F681   1.358       .  S
C676        C677   1.404       .  A
C677        C678   1.394       .  A
C677        F680   1.358       .  S
C678        F682   1.358       .  S
C685        C686   1.405       .  A
C685        C690   1.402       .  A
C685        F703   1.358       .  S
C686        C691   1.482   1_554  S
C686        C687   1.405       .  A
C687        C688   1.397       .  A
C687        F692   1.358       .  S
C688        C689   1.408       .  A
C688        F704   1.358       .  S
C689        C690   1.410       .  A
C690        F693   1.358       .  S
C691        C694   1.405       .  A
C691        C698   1.407       .  A
C694        C695   1.395       .  A
C694        F699   1.358   1_556  S
C695        C696   1.405       .  A
C695        F701   1.358       .  S
C696        C697   1.407       .  A
C697        C698   1.404       .  A
C697        F700   1.358       .  S
C698        F702   1.358       .  S
C705        C706   1.402       .  A
C705        C710   1.403       .  A
C705        F723   1.357       .  S
C706        C711   1.472       .  S
C706        C707   1.401       .  A
C707        C708   1.391       .  A
C707        F712   1.359   1_655  S
C708        C709   1.409       .  A
C708        F724   1.358       .  S
C709        C710   1.412       .  A
C710        F713   1.358       .  S
C711        C714   1.403       .  A
C711        C718   1.404       .  A
C714        C715   1.395   1_655  A
C714        F719   1.358       .  S
C715        C716   1.404       .  A
C715        F721   1.358       .  S
C716        C717   1.406       .  A
C717        C718   1.400   1_455  A
C717        F720   1.358       .  S
C718        F722   1.358       .  S
C725        C726   1.406       .  A
C725        C730   1.397       .  A
C725        F743   1.358       .  S
C726        C731   1.484       .  S
C726        C727   1.405       .  A
C727        C728   1.398       .  A
C727        F732   1.358       .  S
C728        C729   1.411       .  A
C728        F744   1.358       .  S
C729        C730   1.409       .  A
C730        F733   1.358       .  S
C731        C734   1.406       .  A
C731        C738   1.407       .  A
C734        C735   1.395       .  A
C734        F739   1.358       .  S
C735        C736   1.409       .  A
C735        F741   1.358       .  S
C736        C737   1.409       .  A
C737        C738   1.400       .  A
C737        F740   1.358       .  S
C738        F742   1.358       .  S
C745        C746   1.404       .  A
C745        C750   1.398       .  A
C745        F763   1.358       .  S
C746        C751   1.482       .  S
C746        C747   1.404       .  A
C747        C748   1.402       .  A
C747        F752   1.358       .  S
C748        C749   1.412       .  A
C748        F764   1.358       .  S
C749        C750   1.410       .  A
C750        F753   1.358       .  S
C751        C754   1.404       .  A
C751        C758   1.404       .  A
C754        C755   1.399       .  A
C754        F759   1.358       .  S
C755        C756   1.412       .  A
C755        F761   1.358       .  S
C756        C757   1.411       .  A
C757        C758   1.400       .  A
C757        F760   1.358       .  S
C758        F762   1.358       .  S
C765        C766   1.404       .  A
C765        C770   1.400       .  A
C765        F783   1.358       .  S
C766        C771   1.484       .  S
C766        C767   1.404       .  A
C767        C768   1.400       .  A
C767        F772   1.358       .  S
C768        C769   1.412       .  A
C768        F784   1.358       .  S
C769        C770   1.412       .  A
C770        F773   1.358       .  S
C771        C774   1.404       .  A
C771        C778   1.404       .  A
C774        C775   1.400       .  A
C774        F779   1.358       .  S
C775        C776   1.412       .  A
C775        F781   1.358       .  S
C776        C777   1.412       .  A
C777        C778   1.401       .  A
C777        F780   1.358       .  S
C778        F782   1.358       .  S
C785        C786   1.407       .  A
C785        C790   1.398       .  A
C785        F803   1.358       .  S
C786        C791   1.478       .  S
C786        C787   1.404       .  A
C787        C788   1.398       .  A
C787        F792   1.358       .  S
C788        C789   1.405       .  A
C788        F804   1.358       .  S
C789        C790   1.402       .  A
C790        F793   1.358       .  S
C791        C794   1.403       .  A
C791        C798   1.407       .  A
C794        C795   1.395       .  A
C794        F799   1.358       .  S
C795        C796   1.406       .  A
C795        F801   1.358       .  S
C796        C797   1.405       .  A
C797        C798   1.400       .  A
C797        F800   1.358       .  S
C798        F802   1.358       .  S
C805        C806   1.404       .  A
C805        C810   1.398       .  A
C805        F823   1.358       .  S
C806        C811   1.478       .  S
C806        C807   1.403       .  A
C807        C808   1.397       .  A
C807        F812   1.358       .  S
C808        C809   1.412       .  A
C808        F824   1.358       .  S
C809        C810   1.411       .  A
C810        F813   1.358       .  S
C811        C814   1.404       .  A
C811        C818   1.405       .  A
C814        C815   1.395       .  A
C814        F819   1.358       .  S
C815        C816   1.408       .  A
C815        F821   1.358       .  S
C816        C817   1.409       .  A
C817        C818   1.400       .  A
C817        F820   1.358       .  S
C818        F822   1.358       .  S
C825        C826   1.403       .  A
C825        C830   1.397       .  A
C825        F843   1.358       .  S
C826        C831   1.482       .  S
C826        C827   1.406       .  A
C827        C828   1.401       .  A
C827        F832   1.358       .  S
C828        C829   1.409       .  A
C828        F844   1.358       .  S
C829        C830   1.411       .  A
C830        F833   1.358       .  S
C831        C834   1.405       .  A
C831        C838   1.404       .  A
C834        C835   1.399       .  A
C834        F839   1.358       .  S
C835        C836   1.411       .  A
C835        F841   1.358       .  S
C836        C837   1.409       .  A
C837        C838   1.399       .  A
C837        F840   1.358       .  S
C838        F842   1.358       .  S
C845        C846   1.404       .  A
C845        C850   1.403       .  A
C845        F863   1.358       .  S
C846        C851   1.480       .  S
C846        C847   1.403   1_545  A
C847        C848   1.393       .  A
C847        F852   1.359   1_655  S
C848        C849   1.412       .  A
C848        F864   1.358       .  S
C849        C850   1.412   1_565  A
C850        F853   1.357       .  S
C851        C854   1.406       .  A
C851        C858   1.407       .  A
C854        C855   1.397   1_655  A
C854        F859   1.358       .  S
C855        C856   1.403       .  A
C855        F861   1.358       .  S
C856        C857   1.404       .  A
C857        C858   1.400   1_455  A
C857        F860   1.358       .  S
C858        F862   1.358       .  S
