geometry optimzed in LAMMPS
_audit_creation_date              2020-12-01 
_audit_creation_method            'lammps2cif' 
_symmetry_space_group_name_H-M    'P1' 
_symmetry_Int_Tables_number       1 
_symmetry_cell_setting            triclinic 
loop_ 
_symmetry_equiv_pos_as_xyz 
  x,y,z 
_cell_length_a                    47.8577501 
_cell_length_b                    48.06708193307511 
_cell_length_c                    30.70680445008968 
_cell_angle_alpha                 90.0949526896821 
_cell_angle_beta                  89.92202032831209 
_cell_angle_gamma                 120.11497093207207 
loop_ 
_atom_site_label 
_atom_site_type_symbol 
_atom_site_fract_x 
_atom_site_fract_y 
_atom_site_fract_z 
_atom_site_charge 
In1        In  0.41611817  0.53700543  0.05813031     1.36900
C2          C  0.36999266  0.51609943  0.11868548     0.77600
O3          O  0.45373388  0.56582893  0.10827007    -0.60800
O4          O  0.44056914  0.59067216  0.06293417    -0.51700
C5          C  0.45662709  0.51828071  0.02945105     0.70300
O6          O  0.43737577  0.50448800  0.06084707    -0.46600
C7          C  0.37949564  0.52206514  0.98735310     0.75000
O8          O  0.38488719  0.50121543  0.11004804    -0.58400
O9          O  0.39691377  0.55087620  0.99972825    -0.48500
O10         O  0.37887295  0.54113446  0.09645071    -0.54900
C11         C  0.45699722  0.59236828  0.09609319     0.85200
O12         O  0.45527759  0.54181387  0.01366920    -0.56700
O13         O  0.38074761  0.50153011  0.01147058    -0.60000
In14       In  0.58885580  0.46210440  0.93912096     1.36900
C15         C  0.63368380  0.48448454  0.87624245     0.77600
O16         O  0.62540946  0.49732837  0.98577073    -0.60800
O17         O  0.60926109  0.44797814  0.99595446    -0.51700
C18         C  0.54708594  0.47977647  0.96715179     0.70300
O19         O  0.56491956  0.49232275  0.93415660    -0.46600
C20         C  0.54734851  0.40591011  0.90285358     0.75000
O21         O  0.62058500  0.50009385  0.88975496    -0.58400
O22         O  0.56440219  0.40803817  0.93550614    -0.48500
O23         O  0.62363618  0.45775898  0.89469225    -0.54900
C24         C  0.62726473  0.47658243  0.00872619     0.85200
O25         O  0.55091243  0.45843459  0.98543773    -0.56700
O26         O  0.55060068  0.43238709  0.89042713    -0.60000
In27       In  0.91847307  0.78443506  0.10620236     1.36900
C28         C  0.96273371  0.80785699  0.04312590     0.77600
O29         O  0.88021985  0.77569257  0.05750742    -0.60800
O30         O  0.89326314  0.81322649  0.10373772    -0.51700
C31         C  0.87838449  0.72481928  0.13436724     0.70300
O32         O  0.89606772  0.73056637  0.10111425    -0.46600
C33         C  0.95902559  0.80950606  0.17327445     0.75000
O34         O  0.95148617  0.77960699  0.05759586    -0.58400
O35         O  0.93941036  0.81886319  0.16345722    -0.48500
O36         O  0.95057148  0.82320074  0.06013960    -0.54900
C37         C  0.87660938  0.79862015  0.07058986     0.85200
O38         O  0.88127583  0.74966262  0.15270310    -0.56700
O39         O  0.95739048  0.78758347  0.14903708    -0.60000
In40       In  0.74811977  0.53827583  0.23102819     1.36900
C41         C  0.70336921  0.51976038  0.29367608     0.77600
O42         O  0.71089148  0.53671922  0.18614456    -0.60800
O43         O  0.72812423  0.50471480  0.17251303    -0.51700
C44         C  0.78980851  0.59707691  0.20170336     0.70300
O45         O  0.77362281  0.59213180  0.23632239    -0.46600
C46         C  0.78872565  0.52189718  0.26713753     0.75000
O47         O  0.71580155  0.54725580  0.27642953    -0.58400
O48         O  0.76758615  0.50444765  0.23939520    -0.48500
O49         O  0.71452142  0.50265862  0.27973200    -0.54900
C50         C  0.70992185  0.51546575  0.16119781     0.85200
O51         O  0.78499835  0.57173380  0.18265106    -0.56700
O52         O  0.78972429  0.54817498  0.27498925    -0.60000
In53       In  0.25860154  0.80197458  0.27239524     1.36900
C54         C  0.30033650  0.82245407  0.20662558     0.77600
O55         O  0.29753840  0.83867971  0.31518942    -0.60800
O56         O  0.27916356  0.78962332  0.33094986    -0.51700
C57         C  0.21724712  0.81919850  0.30177703     0.70300
O58         O  0.23715511  0.83422322  0.27152606    -0.46600
C59         C  0.21628360  0.74581808  0.23701309     0.75000
O60         O  0.28720569  0.83809404  0.21986034    -0.58400
O61         O  0.23545079  0.74827140  0.26712039    -0.48500
O62         O  0.29208370  0.79678172  0.22705401    -0.54900
C63         C  0.29857486  0.81867087  0.34058211     0.85200
O64         O  0.21893614  0.79567665  0.31682058    -0.56700
O65         O  0.21825097  0.77207008  0.22618765    -0.60000
In66       In  0.08312657  0.87220749  0.39088055     1.36900
C67         C  0.03252783  0.84633866  0.44333270     0.77600
O68         O  0.10748185  0.89968889  0.45103125    -0.60800
O69         O  0.11009729  0.92654919  0.39457577    -0.51700
C70         C  0.12681029  0.85664347  0.36607647     0.70300
O71         O  0.10544021  0.84060374  0.39432069    -0.46600
C72         C  0.04781103  0.85522549  0.31887835     0.75000
O73         O  0.05391147  0.83818220  0.44491140    -0.58400
O74         O  0.06371297  0.88424056  0.33136001    -0.48500
O75         O  0.03749168  0.86749522  0.41530374    -0.54900
C76         C  0.11685924  0.92691670  0.43443454     0.85200
O77         O  0.12629274  0.88106852  0.35231086    -0.56700
O78         O  0.05078957  0.83557103  0.34283994    -0.60000
In79       In  0.59017162  0.12385099  0.43976353     1.36900
C80         C  0.63497721  0.14801437  0.37730230     0.77600
O81         O  0.55152886  0.11412714  0.39127435    -0.60800
O82         O  0.56552078  0.15319062  0.43509672    -0.51700
C83         C  0.54903245  0.06456150  0.46674233     0.70300
O84         O  0.57000568  0.07025925  0.43764990    -0.46600
C85         C  0.62631371  0.14416812  0.51136583     0.75000
O86         O  0.62091662  0.11866672  0.38794309    -0.58400
O87         O  0.60854740  0.15532280  0.49967375    -0.48500
O88         O  0.62624645  0.16467661  0.39884059    -0.54900
C89         C  0.54789835  0.13725862  0.40329329     0.85200
O90         O  0.54919453  0.08921749  0.48124667    -0.56700
O91         O  0.62577576  0.12327212  0.48606169    -0.60000
In92       In  0.42000818  0.87806007  0.56200968     1.36900
C93         C  0.37184230  0.85512470  0.61944072     0.77600
O94         O  0.38663043  0.88109541  0.51422087    -0.60800
O95         O  0.40105670  0.84659485  0.50208385    -0.51700
C96         C  0.46176560  0.93678118  0.53352588     0.70300
O97         O  0.44042298  0.93159327  0.56182731    -0.46600
C98         C  0.45775462  0.85949176  0.60061274     0.75000
O99         O  0.39392302  0.88433401  0.61984774    -0.58400
O100        O  0.44000491  0.84477064  0.56842481    -0.48500
O101        O  0.37501121  0.83826293  0.59066533    -0.54900
C102        C  0.38435860  0.85888185  0.48985970     0.85200
O103        O  0.46192841  0.91188174  0.52073922    -0.56700
O104        O  0.45700390  0.88430378  0.61208173    -0.60000
In105      In  0.91647743  0.12581266  0.60262427     1.36900
C106        C  0.96159111  0.15129485  0.54007232     0.77600
O107        O  0.95128778  0.16051798  0.65082081    -0.60800
O108        O  0.93782061  0.11156003  0.65833500    -0.51700
C109        C  0.87406008  0.14274057  0.62943010     0.70300
O110        O  0.89055739  0.15375507  0.59502524    -0.46600
C111        C  0.87529681  0.06874865  0.56879642     0.75000
O112        O  0.95038999  0.16710632  0.55852492    -0.58400
O113        O  0.89531954  0.07213146  0.59811471    -0.48500
O114        O  0.94899436  0.12263902  0.55280176    -0.54900
C115        C  0.95437721  0.13999641  0.67245258     0.85200
O116        O  0.87914648  0.12281979  0.64956180    -0.56700
O117        O  0.87585344  0.09436591  0.55818381    -0.60000
In118      In  0.74932043  0.20421544  0.73051728     1.36900
C119        C  0.70777851  0.17987699  0.79664622     0.77600
O120        O  0.79188232  0.23693036  0.77206902    -0.60800
O121        O  0.76751776  0.25702898  0.73808675    -0.51700
C122        C  0.78983100  0.18692644  0.69767247     0.70300
O123        O  0.77354017  0.17481928  0.73196709    -0.46600
C124        C  0.70859694  0.18695788  0.66354970     0.75000
O125        O  0.72073733  0.16505575  0.78003357    -0.58400
O126        O  0.72691776  0.21607763  0.67390887    -0.48500
O127        O  0.71673887  0.20703044  0.78031814    -0.54900
C128        C  0.78936730  0.26145498  0.76497710     0.85200
O129        O  0.78614368  0.20887262  0.68093282    -0.56700
O130        O  0.71086371  0.16719640  0.68798731    -0.60000
In131      In  0.25014619  0.44997989  0.77611550     1.36900
C132        C  0.29366603  0.47217600  0.71227359     0.77600
O133        O  0.20912602  0.43965442  0.73151500    -0.60800
O134        O  0.22660749  0.48013358  0.77377181    -0.51700
C135        C  0.21119194  0.39053799  0.80423930     0.70300
O136        O  0.22673848  0.39656989  0.76890251    -0.46600
C137        C  0.29142954  0.47629624  0.84169853     0.75000
O138        O  0.28386980  0.44486438  0.72912801    -0.58400
O139        O  0.27182548  0.48561157  0.83168005    -0.48500
O140        O  0.28029748  0.48700515  0.72706631    -0.54900
C141        C  0.20769517  0.46412307  0.74307597     0.85200
O142        O  0.21560396  0.41513638  0.82498448    -0.56700
O143        O  0.28906958  0.45349731  0.81871543    -0.60000
In144      In  0.07995624  0.20256196  0.88944626     1.36900
C145        C  0.03557820  0.18210264  0.95127829     0.77600
O146        O  0.04243733  0.20265234  0.84694173    -0.60800
O147        O  0.05877668  0.17030692  0.83043850    -0.51700
C148        C  0.12168507  0.26181071  0.86443813     0.70300
O149        O  0.10571039  0.25576179  0.89938037    -0.46600
C150        C  0.12071684  0.18664942  0.92472433     0.75000
O151        O  0.04842221  0.21028760  0.93626874    -0.58400
O152        O  0.10207657  0.17078377  0.89367435    -0.48500
O153        O  0.04587094  0.16481703  0.93522012    -0.54900
C154        C  0.04029359  0.18121449  0.82128107     0.85200
O155        O  0.11599611  0.23731440  0.84235943    -0.56700
O156        O  0.11949920  0.21128880  0.93577720    -0.60000
In157      In  0.86810633  0.78625933  0.59878432     1.36900
C158        C  0.84428036  0.80980754  0.54114179     0.77600
O159        O  0.83409765  0.78647818  0.64785343    -0.60800
O160        O  0.88395076  0.82030593  0.65636821    -0.51700
C161        C  0.85291836  0.72784622  0.62575540     0.70300
O162        O  0.83554488  0.73261421  0.59923816    -0.46600
C163        C  0.92023298  0.80086569  0.55268713     0.75000
O164        O  0.82990334  0.78011731  0.55034536    -0.58400
O165        O  0.92204710  0.81114243  0.59115724    -0.48500
O166        O  0.87007155  0.82686588  0.56205808    -0.54900
C167        C  0.85544931  0.80892227  0.67059361     0.85200
O168        O  0.87814974  0.75302528  0.63764169    -0.56700
O169        O  0.89199939  0.78228076  0.53895633    -0.60000
In170      In  0.79961587  0.54381527  0.72488257     1.36900
C171        C  0.82143611  0.52057478  0.78604003     0.77600
O172        O  0.76975555  0.55146133  0.77453366    -0.60800
O173        O  0.74559806  0.51347379  0.72874970    -0.51700
C174        C  0.81812384  0.60252115  0.69545044     0.70300
O175        O  0.83159698  0.59775358  0.72772788    -0.46600
C176        C  0.81530275  0.52105661  0.65600875     0.75000
O177        O  0.83649650  0.55001732  0.77576646    -0.58400
O178        O  0.78623106  0.51045833  0.66704261    -0.48500
O179        O  0.79579629  0.50366219  0.76501955    -0.54900
C180        C  0.74335574  0.52789715  0.76186117     0.85200
O181        O  0.79502176  0.57727129  0.67934213    -0.56700
O182        O  0.83566672  0.54319015  0.68006997    -0.60000
In183      In  0.20998683  0.12859772  0.11013333     1.36900
C184        C  0.18747486  0.14739914  0.04353972     0.77600
O185        O  0.22096387  0.09711500  0.06832869    -0.60800
O186        O  0.17795761  0.07494811  0.10625493    -0.51700
C187        C  0.26944648  0.14770775  0.13924793     0.70300
O188        O  0.26406962  0.15838431  0.10451564    -0.46600
C189        C  0.18749116  0.14741952  0.17660928     0.75000
O190        O  0.21615325  0.16405668  0.05725164    -0.58400
O191        O  0.17794132  0.11805819  0.16941906    -0.48500
O192        O  0.17091995  0.12123245  0.06345941    -0.54900
C193        C  0.19525498  0.07158438  0.07787715     0.85200
O194        O  0.24422015  0.12740373  0.15904029    -0.56700
O195        O  0.20783535  0.16649968  0.14948090    -0.60000
In196      In  0.45727156  0.20170136  0.23057369     1.36900
C197        C  0.47675743  0.17664957  0.29328088     0.77600
O198        O  0.45937844  0.16786881  0.18322008    -0.60800
O199        O  0.49239920  0.21748977  0.17369373    -0.51700
C200        C  0.39788706  0.18452244  0.20307757     0.70300
O201        O  0.40319212  0.17310919  0.23712160    -0.46600
C202        C  0.47327143  0.25787829  0.26697242     0.75000
O203        O  0.45051215  0.15996375  0.27311219    -0.58400
O204        O  0.49090863  0.25476126  0.23891383    -0.48500
O205        O  0.49205286  0.20567059  0.28201962    -0.54900
C206        C  0.48178110  0.18904826  0.16034448     0.85200
O207        O  0.42314503  0.20489314  0.18344541    -0.56700
O208        O  0.44688286  0.23250340  0.27471397    -0.60000
In209      In  0.87933206  0.45793249  0.44215533     1.36900
C210        C  0.85769060  0.48040238  0.37907740     0.77600
O211        O  0.88979112  0.42955221  0.39390367    -0.60800
O212        O  0.85080393  0.40404170  0.43807695    -0.51700
C213        C  0.93777643  0.47583582  0.47374389     0.70300
O214        O  0.93335013  0.48732083  0.43907609    -0.46600
C215        C  0.85515728  0.47396506  0.50901619     0.75000
O216        O  0.88610512  0.49651819  0.39387503    -0.58400
O217        O  0.84315402  0.44496442  0.49711408    -0.48500
O218        O  0.84110241  0.45300779  0.39598287    -0.54900
C219        C  0.86667112  0.40270283  0.40590038     0.85200
O220        O  0.91208772  0.45498416  0.49203829    -0.56700
O221        O  0.87874960  0.49392364  0.48649672    -0.60000
In222      In  0.12658089  0.53624364  0.56637594     1.36900
C223        C  0.14640369  0.51187311  0.62895139     0.77600
O224        O  0.12942204  0.50107484  0.52166563    -0.60800
O225        O  0.15900563  0.55054497  0.50674024    -0.51700
C226        C  0.06697426  0.51742447  0.53840152     0.70300
O227        O  0.07239117  0.50702123  0.57333297    -0.46600
C228        C  0.14307113  0.59264565  0.60399871     0.75000
O229        O  0.11809981  0.49664830  0.61371423    -0.58400
O230        O  0.16062467  0.58950620  0.57586957    -0.48500
O231        O  0.16398828  0.53907866  0.61214130    -0.54900
C232        C  0.14990392  0.52180239  0.49615358     0.85200
O233        O  0.09214852  0.53777842  0.51861031    -0.56700
O234        O  0.11649174  0.56733208  0.61086564    -0.60000
In235      In  0.13192292  0.21434689  0.39696663     1.36900
C236        C  0.15387451  0.19089293  0.45878385     0.77600
O237        O  0.10080794  0.22200601  0.44497025    -0.60800
O238        O  0.07774021  0.18468201  0.39814770    -0.51700
C239        C  0.15062018  0.27354313  0.36899187     0.70300
O240        O  0.16226826  0.26843249  0.40304945    -0.46600
C241        C  0.14680857  0.19200925  0.32621536     0.75000
O242        O  0.17030140  0.21953317  0.44535567    -0.58400
O243        O  0.11829411  0.17950270  0.34065164    -0.48500
O244        O  0.12672562  0.17499066  0.44078337    -0.54900
C245        C  0.07464456  0.19875347  0.43105695     0.85200
O246        O  0.12906473  0.24838081  0.35065914    -0.56700
O247        O  0.16733931  0.21559201  0.34820608    -0.60000
In248      In  0.20544583  0.45907522  0.27215617     1.36900
C249        C  0.18213691  0.47998640  0.20944256     0.77600
O250        O  0.16959601  0.45977263  0.31743725    -0.60800
O251        O  0.21911746  0.49236817  0.33038538    -0.51700
C252        C  0.19045090  0.40111147  0.30190155     0.70300
O253        O  0.17541950  0.40516927  0.27093552    -0.46600
C254        C  0.26079244  0.47576390  0.23291747     0.75000
O255        O  0.16704516  0.45102566  0.22203891    -0.58400
O256        O  0.25875900  0.49169010  0.26435892    -0.48500
O257        O  0.20828553  0.49746038  0.22911667    -0.54900
C258        C  0.19009951  0.48138255  0.34199773     0.85200
O259        O  0.21341257  0.42686447  0.31715521    -0.56700
O260        O  0.23481278  0.45055656  0.22311380    -0.60000
In261      In  0.46236589  0.87599363  0.05382861     1.36900
C262        C  0.48258296  0.85297870  0.11783896     0.77600
O263        O  0.43364996  0.88550736  0.10235021    -0.60800
O264        O  0.40812997  0.84798935  0.05620586    -0.51700
C265        C  0.48216977  0.93617552  0.02996941     0.70300
O266        O  0.49635946  0.92933684  0.05917533    -0.46600
C267        C  0.47572631  0.85299065  0.98263169     0.75000
O268        O  0.49976770  0.88116026  0.10328317    -0.58400
O269        O  0.44772746  0.83961888  0.99887996    -0.48500
O270        O  0.45583091  0.83689286  0.09896956    -0.54900
C271        C  0.40674650  0.86304970  0.08921009     0.85200
O272        O  0.45790723  0.91208442  0.01343750    -0.56700
O273        O  0.49627100  0.87755738  0.00288576    -0.60000
In274      In  0.54153518  0.12500074  0.94252410     1.36900
C275        C  0.51954078  0.14723849  0.87987751     0.77600
O276        O  0.50510857  0.12637838  0.98541589    -0.60800
O277        O  0.55432846  0.15921498  0.99968599    -0.51700
C278        C  0.52217045  0.06547210  0.97041111     0.70300
O279        O  0.50998643  0.07134560  0.93768461    -0.46600
C280        C  0.59763253  0.13857510  0.90734846     0.75000
O281        O  0.50353916  0.11870610  0.89375996    -0.58400
O282        O  0.59594528  0.15286343  0.94106301    -0.48500
O283        O  0.54686249  0.16385531  0.89734496    -0.54900
C284        C  0.52505672  0.14838075  0.00993566     0.85200
O285        O  0.54433214  0.09024426  0.98878503    -0.56700
O286        O  0.57067083  0.11700178  0.89292533    -0.60000
In287      In  0.79392871  0.86836458  0.89250415     1.36900
C288        C  0.81269110  0.84353051  0.95612164     0.77600
O289        O  0.79382261  0.83156373  0.84837649    -0.60800
O290        O  0.82749657  0.88034307  0.83440116    -0.51700
C291        C  0.73473847  0.85167503  0.86449244     0.70300
O292        O  0.73991370  0.84144432  0.89975849    -0.46600
C293        C  0.81165416  0.92552506  0.92747034     0.75000
O294        O  0.78459501  0.82861659  0.94020773    -0.58400
O295        O  0.82849731  0.92165418  0.89894124    -0.48500
O296        O  0.83057034  0.87093119  0.94001509    -0.54900
C297        C  0.81598879  0.85118129  0.82369737     0.85200
O298        O  0.76007591  0.87087225  0.84394651    -0.56700
O299        O  0.78519514  0.90057090  0.93616563    -0.60000
In300      In  0.54475160  0.79028480  0.77376401     1.36900
C301        C  0.52169624  0.81134058  0.71068082     0.77600
O302        O  0.55297105  0.75931350  0.72742204    -0.60800
O303        O  0.51313713  0.73630692  0.77077605    -0.51700
C304        C  0.60444121  0.80960249  0.80282982     0.70300
O305        O  0.59889814  0.82183965  0.76986145    -0.46600
C306        C  0.52045808  0.80746128  0.83952001     0.75000
O307        O  0.55133132  0.82597469  0.72070904    -0.58400
O308        O  0.51137621  0.77833189  0.83151424    -0.48500
O309        O  0.50476022  0.78592970  0.73194134    -0.54900
C310        C  0.52865402  0.73335902  0.73946741     0.85200
O311        O  0.57930025  0.78748835  0.82071921    -0.56700
O312        O  0.54250797  0.82725024  0.81478674    -0.60000
In313      In  0.12661485  0.59070759  0.06391783     1.36900
C314        C  0.14733403  0.63360158  0.12874908     0.77600
O315        O  0.11517284  0.54860369  0.10656903    -0.60800
O316        O  0.15893030  0.56940746  0.07048768    -0.51700
C317        C  0.06735345  0.55104175  0.03296343     0.70300
O318        O  0.07234743  0.56651291  0.06820401    -0.46600
C319        C  0.15252257  0.63136475  0.99744305     0.75000
O320        O  0.11923118  0.62180134  0.11305098    -0.58400
O321        O  0.15978348  0.60995210  0.00535009    -0.48500
O322        O  0.16395875  0.62269877  0.11216084    -0.54900
C323        C  0.14091666  0.54851064  0.09805410     0.85200
O324        O  0.09281893  0.55608962  0.01372928    -0.56700
O325        O  0.13228578  0.63161731  0.02349347    -0.60000
In326      In  0.88010168  0.41638688  0.94005928     1.36900
C327        C  0.85728787  0.37138865  0.87794378     0.77600
O328        O  0.87919426  0.38040385  0.98632272    -0.60800
O329        O  0.84707828  0.39799286  0.99867558    -0.51700
C330        C  0.93949940  0.45940080  0.96699630     0.70300
O331        O  0.93437741  0.44022559  0.93573318    -0.46600
C332        C  0.86418207  0.45567963  0.90180764     0.75000
O333        O  0.88661752  0.38548362  0.88945531    -0.58400
O334        O  0.84799186  0.43772344  0.93311790    -0.48500
O335        O  0.84036037  0.38040374  0.89824658    -0.54900
C336        C  0.85762691  0.37981788  0.01055994     0.85200
O337        O  0.91412079  0.45623258  0.98435877    -0.56700
O338        O  0.88902523  0.45433145  0.89176238    -0.60000
In339      In  0.20987991  0.08201707  0.60968165     1.36900
C340        C  0.18268192  0.03625692  0.54914430     0.77600
O341        O  0.21196533  0.04660979  0.65476802    -0.60800
O342        O  0.17903232  0.06269379  0.67013591    -0.51700
C343        C  0.26987746  0.12122698  0.63694212     0.70300
O344        O  0.26324755  0.09984686  0.60822792    -0.46600
C345        C  0.19458163  0.12281683  0.57329891     0.75000
O346        O  0.21287340  0.05544932  0.55026569    -0.58400
O347        O  0.17938155  0.10552804  0.60565155    -0.48500
O348        O  0.16719100  0.04088742  0.57867373    -0.54900
C349        C  0.19059732  0.04499987  0.68043389     0.85200
O350        O  0.24574164  0.12269697  0.65070990    -0.56700
O351        O  0.21847887  0.12039058  0.56130873    -0.60000
In352      In  0.45865508  0.25097413  0.72753225     1.36900
C353        C  0.48043026  0.29608378  0.78969425     0.77600
O354        O  0.45041770  0.21275927  0.77547815    -0.60800
O355        O  0.49087585  0.22963875  0.73297610    -0.51700
C356        C  0.39895160  0.20814226  0.70242848     0.70300
O357        O  0.40485317  0.22803185  0.73297085    -0.46600
C358        C  0.47886738  0.28772112  0.65623065     0.75000
O359        O  0.45181037  0.28295104  0.77561549    -0.58400
O360        O  0.49205383  0.27204611  0.66901570    -0.48500
O361        O  0.49742848  0.28589945  0.77239364    -0.54900
C362        C  0.47534970  0.21171804  0.76472376     0.85200
O363        O  0.42380994  0.20975005  0.68549133    -0.56700
O364        O  0.45592701  0.28434498  0.67994330    -0.60000
In365      In  0.20827295  0.75036425  0.77563632     1.36900
C366        C  0.18674642  0.70364176  0.71629421     0.77600
O367        O  0.23234095  0.78120667  0.71847076    -0.60800
O368        O  0.26237018  0.77993101  0.76880296    -0.51700
C369        C  0.19069156  0.79187357  0.80386408     0.70300
O370        O  0.17488610  0.77077644  0.77521878    -0.46600
C371        C  0.19513997  0.71461117  0.84682016     0.75000
O372        O  0.17052294  0.71670021  0.72761129    -0.58400
O373        O  0.22374459  0.73134709  0.83277100    -0.48500
O374        O  0.21340254  0.71435540  0.73570153    -0.54900
C375        C  0.26061268  0.78992863  0.73131084     0.85200
O376        O  0.21568470  0.79192675  0.81699761    -0.56700
O377        O  0.17400154  0.71585703  0.82387145    -0.60000
In378      In  0.13255830  0.92057462  0.89894690     1.36900
C379        C  0.15521171  0.96381855  0.96293861     0.77600
O380        O  0.16913687  0.95911477  0.85551401    -0.60800
O381        O  0.11979739  0.93978113  0.83945468    -0.51700
C382        C  0.15039748  0.87975213  0.86954749     0.70300
O383        O  0.16329636  0.89746644  0.90251213    -0.46600
C384        C  0.07534378  0.87983604  0.93480976     0.75000
O385        O  0.16976166  0.94920000  0.95118738    -0.58400
O386        O  0.07894183  0.90052806  0.90664133    -0.48500
O387        O  0.12973579  0.95611639  0.94206299    -0.54900
C388        C  0.14885745  0.95952985  0.82976619     0.85200
O389        O  0.12841111  0.88310193  0.85201755    -0.56700
O390        O  0.10079587  0.87916821  0.94319835    -0.60000
In391      In  0.53549878  0.41298115  0.44011619     1.36900
C392        C  0.51563376  0.36857032  0.37810006     0.77600
O393        O  0.56509465  0.45046780  0.39048649    -0.60800
O394        O  0.58952893  0.43815154  0.43770000    -0.51700
C395        C  0.51609721  0.45288588  0.46855331     0.70300
O396        O  0.50314578  0.43435447  0.43634674    -0.46600
C397        C  0.51961055  0.37310076  0.50736946     0.75000
O398        O  0.49977351  0.38222909  0.38817247    -0.58400
O399        O  0.54867063  0.39315613  0.49817588    -0.48500
O400        O  0.54137118  0.37813879  0.39928354    -0.54900
C401        C  0.59169518  0.45438893  0.40419904     0.85200
O402        O  0.53885986  0.45077116  0.48585867    -0.56700
O403        O  0.49913353  0.37397938  0.48249866    -0.60000
In404      In  0.45813615  0.58245633  0.55971454     1.36900
C405        C  0.48213947  0.62507037  0.62434493     0.77600
O406        O  0.49451284  0.62000315  0.51586386    -0.60800
O407        O  0.44531724  0.60414048  0.50283141    -0.51700
C408        C  0.47458871  0.54052414  0.53060601     0.70300
O409        O  0.48746395  0.55816416  0.56357431    -0.46600
C410        C  0.40243930  0.54218421  0.59776837     0.75000
O411        O  0.49773998  0.61289340  0.60775187    -0.58400
O412        O  0.40440300  0.56087714  0.56739777    -0.48500
O413        O  0.45478727  0.61548297  0.60768246    -0.54900
C414        C  0.47450206  0.62264757  0.49222695     0.85200
O415        O  0.45290147  0.54422334  0.51275500    -0.56700
O416        O  0.42865868  0.54324084  0.60678428    -0.60000
In417      In  0.87064475  0.07864923  0.10311509     1.36900
C418        C  0.85124001  0.03455291  0.04074599     0.77600
O419        O  0.89843722  0.11360915  0.05089689    -0.60800
O420        O  0.92491764  0.10490369  0.09935700    -0.51700
C421        C  0.85357370  0.12080727  0.12993405     0.70300
O422        O  0.83944392  0.10141718  0.09888112    -0.46600
C423        C  0.85261265  0.03866785  0.17108264     0.75000
O424        O  0.83529965  0.04814834  0.05082859    -0.58400
O425        O  0.88206812  0.05693297  0.16140671    -0.48500
O426        O  0.87666646  0.04372660  0.06259428    -0.54900
C427        C  0.92565772  0.11915509  0.06431051     0.85200
O428        O  0.87618092  0.11827173  0.14704835    -0.56700
O429        O  0.83319275  0.04130318  0.14609449    -0.60000
In430      In  0.80022150  0.25334587  0.22463875     1.36900
C431        C  0.82516681  0.29606986  0.28896206     0.77600
O432        O  0.83549100  0.29435939  0.18428173    -0.60800
O433        O  0.78624816  0.27215403  0.16583996    -0.51700
C434        C  0.81855451  0.21282024  0.19488345     0.70300
O435        O  0.82899628  0.22817615  0.23015249    -0.46600
C436        C  0.74320787  0.21316873  0.26053031     0.75000
O437        O  0.84084307  0.28441352  0.27117042    -0.58400
O438        O  0.74648749  0.23336474  0.23170568    -0.48500
O439        O  0.79710958  0.28552003  0.27415980    -0.54900
C440        C  0.81501697  0.29382184  0.15806146     0.85200
O441        O  0.79872737  0.21831830  0.17510922    -0.56700
O442        O  0.76875212  0.21275789  0.26918640    -0.60000
In443      In  0.78500410  0.91627256  0.39168309     1.36900
C444        C  0.80752089  0.95946771  0.45607235     0.77600
O445        O  0.77627539  0.87788850  0.44020106    -0.60800
O446        O  0.81625701  0.89401851  0.39690275    -0.51700
C447        C  0.72557443  0.87483729  0.36369476     0.70300
O448        O  0.73127040  0.89643047  0.39161306    -0.46600
C449        C  0.80819056  0.95398133  0.32138615     0.75000
O450        O  0.77820470  0.94547044  0.44459140    -0.58400
O451        O  0.81851266  0.93565872  0.33341603    -0.48500
O452        O  0.82473042  0.95146255  0.43448611    -0.54900
C453        C  0.80085597  0.87637962  0.42887206     0.85200
O454        O  0.75033793  0.87431456  0.35066029    -0.56700
O455        O  0.78632984  0.95295633  0.34540365    -0.60000
In456      In  0.53674343  0.74616986  0.27375296     1.36900
C457        C  0.51731269  0.70155470  0.21108112     0.77600
O458        O  0.53903416  0.71357336  0.32315279    -0.60800
O459        O  0.50201596  0.72503045  0.33085434    -0.51700
C460        C  0.59630531  0.78827728  0.29962235     0.70300
O461        O  0.59057170  0.76816686  0.26945994    -0.46600
C462        C  0.52010012  0.78602985  0.23765082     0.75000
O463        O  0.54587785  0.71577332  0.22532825    -0.58400
O464        O  0.50329163  0.76629389  0.26707360    -0.48500
O465        O  0.49926791  0.71033495  0.22868632    -0.54900
C466        C  0.51524743  0.70984381  0.34522527     0.85200
O467        O  0.57146829  0.78717315  0.31580685    -0.56700
O468        O  0.54580748  0.78609107  0.22831905    -0.60000
C469        C  0.69260894  0.85238143  0.34714125    -0.05400
C470        C  0.66834879  0.86051020  0.35141455    -0.32800
C471        C  0.63700131  0.83998347  0.33595049     0.36400
C472        C  0.62942092  0.81081354  0.31533625    -0.05800
C473        C  0.65367417  0.80269689  0.31082588    -0.32700
C474        C  0.68499463  0.82310902  0.32662382     0.36300
H475        H  0.67373301  0.88303767  0.36655911     0.16700
O476        O  0.61425162  0.84921118  0.33988709    -0.60200
H477        H  0.64818881  0.78011041  0.29576084     0.16700
O478        O  0.70752633  0.81352377  0.32353816    -0.60300
H479        H  0.71530872  0.81799675  0.29300647     0.43700
H480        H  0.60536806  0.84270145  0.36970441     0.43700
C481        C  0.82001580  0.97475401  0.28217601    -0.05400
C482        C  0.79926629  0.98307956  0.26112003    -0.32800
C483        C  0.80930691  0.00281412  0.22425835     0.36400
C484        C  0.84129241  0.01616431  0.20876464    -0.05800
C485        C  0.86213201  0.00772722  0.22970029    -0.32700
C486        C  0.85147821  0.98665136  0.26555532     0.36300
H487        H  0.77482379  0.97382167  0.27291272     0.16700
O488        O  0.78770495  0.00946643  0.20429284    -0.60200
H489        H  0.88663823  0.01725875  0.21805467     0.16700
O490        O  0.87238078  0.97881450  0.28500941    -0.60300
H491        H  0.86900058  0.95919279  0.26965739     0.43700
H492        H  0.77544349  0.99132625  0.18385886     0.43700
C493        C  0.82827047  0.18993444  0.17801414    -0.05400
C494        C  0.81246248  0.17094850  0.14139424    -0.32800
C495        C  0.82031146  0.14839549  0.12525707     0.36400
C496        C  0.84463809  0.14462266  0.14555132    -0.05800
C497        C  0.86080901  0.16402688  0.18174158    -0.32700
C498        C  0.85292093  0.18650482  0.19789240     0.36300
H499        H  0.79363239  0.17331653  0.12529379     0.16700
O500        O  0.80439614  0.13061524  0.08920813    -0.60200
H501        H  0.87970464  0.16176319  0.19782610     0.16700
O502        O  0.86940415  0.20478391  0.23331442    -0.60300
H503        H  0.88744150  0.22487027  0.22103106     0.43700
H504        H  0.78263962  0.11429758  0.09970200     0.43700
C505        C  0.48486827  0.64572575  0.45537672    -0.05400
C506        C  0.46289102  0.65301175  0.43532499    -0.32800
C507        C  0.47261524  0.67498043  0.40059807     0.36400
C508        C  0.50441549  0.68911227  0.38439605    -0.05800
C509        C  0.52639944  0.68222598  0.40493078    -0.32700
C510        C  0.51706760  0.66111909  0.44021834     0.36300
H511        H  0.43817251  0.64184433  0.44677366     0.16700
O512        O  0.45056822  0.68154475  0.38187855    -0.60200
H513        H  0.55114081  0.69327405  0.39354586     0.16700
O514        O  0.53980900  0.65588626  0.45971244    -0.60300
H515        H  0.54212575  0.64066001  0.44028649     0.43700
H516        H  0.45218759  0.69991482  0.39874073     0.43700
C517        C  0.50549624  0.47526678  0.48467113    -0.05400
C518        C  0.48089685  0.47740570  0.46271968    -0.32800
C519        C  0.47055769  0.49849276  0.47703642     0.36400
C520        C  0.48456140  0.51770472  0.51436102    -0.05800
C521        C  0.50912066  0.51552168  0.53626654    -0.32700
C522        C  0.51964722  0.49469471  0.52177826     0.36300
H523        H  0.46971608  0.46283141  0.43407764     0.16700
O524        O  0.44665260  0.49991994  0.45433281    -0.60200
H525        H  0.52045735  0.53017650  0.56479804     0.16700
O526        O  0.54421009  0.49403561  0.54383860    -0.60300
H527        H  0.53362576  0.47916788  0.56861090     0.43700
H528        H  0.45803703  0.51616436  0.43123186     0.43700
C529        C  0.18063855  0.81450842  0.82093612    -0.05400
C530        C  0.15351760  0.81431452  0.80317157    -0.32800
C531        C  0.14316962  0.83503148  0.81897081     0.36400
C532        C  0.16031715  0.85699398  0.85276294    -0.05800
C533        C  0.18727144  0.85702138  0.87080104    -0.32700
C534        C  0.19741025  0.83604611  0.85535237     0.36300
H535        H  0.14002810  0.79783079  0.77705668     0.16700
O536        O  0.11611678  0.83339048  0.80116686    -0.60200
H537        H  0.20062479  0.87336907  0.89711012     0.16700
O538        O  0.22322593  0.83627174  0.87505853    -0.60300
H539        H  0.24260979  0.85400140  0.86087275     0.43700
H540        H  0.09782876  0.81710646  0.81877868     0.43700
C541        C  0.48916214  0.30862336  0.61706893    -0.05400
C542        C  0.51946240  0.31882995  0.59780398    -0.32800
C543        C  0.52996968  0.34001423  0.56215148     0.36400
C544        C  0.50974529  0.35066240  0.54462719    -0.05800
C545        C  0.47916015  0.33964191  0.56302032    -0.32700
C546        C  0.46902531  0.31932389  0.59919266     0.36300
H547        H  0.53527127  0.31083651  0.61084772     0.16700
O548        O  0.55952575  0.34928254  0.54387177    -0.60200
H549        H  0.46317910  0.34741612  0.54991403     0.16700
O550        O  0.43908103  0.30975634  0.61639550    -0.60300
H551        H  0.44234817  0.32726508  0.63659634     0.43700
H552        H  0.57499345  0.36899452  0.55989417     0.43700
C553        C  0.17998180  0.02376904  0.71913988    -0.05400
C554        C  0.14740241  0.00774088  0.73183740    -0.32800
C555        C  0.13667005  0.98623339  0.76711712     0.36400
C556        C  0.15888683  0.98139729  0.79145822    -0.05800
C557        C  0.19156925  0.99785541  0.77891063    -0.32700
C558        C  0.20206686  0.01849372  0.74289224     0.36300
H559        H  0.13003376  0.01123840  0.71361791     0.16700
O560        O  0.10450197  0.97042772  0.77774006    -0.60200
H561        H  0.20912857  0.99446600  0.79681303     0.16700
O562        O  0.23406353  0.03347588  0.73131103    -0.60300
H563        H  0.24396809  0.05514208  0.74476560     0.43700
H564        H  0.09456840  0.95082246  0.75931001     0.43700
C565        C  0.30304829  0.14286971  0.65371712    -0.05400
C566        C  0.30827410  0.16737851  0.68327511    -0.32800
C567        C  0.33908005  0.18823147  0.70005774     0.36400
C568        C  0.36571141  0.18522132  0.68701800    -0.05800
C569        C  0.36048340  0.16048176  0.65783836    -0.32700
C570        C  0.32954135  0.13939920  0.64131078     0.36300
H571        H  0.28836789  0.17055918  0.69344967     0.16700
O572        O  0.34293075  0.21209147  0.72818828    -0.60200
H573        H  0.38047516  0.15743477  0.64768266     0.16700
O574        O  0.32545975  0.11515831  0.61374731    -0.60300
H575        H  0.33143270  0.12516856  0.58448381     0.43700
H576        H  0.33915541  0.20234116  0.75759058     0.43700
C577        C  0.84628708  0.35952955  0.04983205    -0.05400
C578        C  0.81322634  0.34151000  0.05983086    -0.32800
C579        C  0.80235408  0.31979008  0.09489946     0.36400
C580        C  0.82483740  0.31667577  0.12114780    -0.05800
C581        C  0.85792764  0.33579533  0.11183966    -0.32700
C582        C  0.86863200  0.35675098  0.07639448     0.36300
H583        H  0.79577100  0.34346897  0.03957864     0.16700
O584        O  0.76987061  0.30202652  0.10332628    -0.60200
H585        H  0.87575249  0.33417907  0.13170443     0.16700
O586        O  0.90118283  0.37518754  0.06865451    -0.60300
H587        H  0.90703472  0.36099913  0.05237475     0.43700
H588        H  0.76192319  0.28233628  0.08532345     0.43700
C589        C  0.18636629  0.69523175  0.88710537    -0.05400
C590        C  0.20347719  0.68003290  0.90039633    -0.32800
C591        C  0.19317705  0.65942161  0.93669141     0.36400
C592        C  0.16556518  0.65403181  0.96030213    -0.05800
C593        C  0.14951810  0.67047366  0.94793423    -0.32700
C594        C  0.15961807  0.69078542  0.91181503     0.36300
H595        H  0.22426953  0.68341942  0.88195098     0.16700
O596        O  0.21005214  0.64449933  0.94843746    -0.60200
H597        H  0.12852631  0.66712468  0.96584472     0.16700
O598        O  0.14294134  0.70608233  0.90078247    -0.60300
H599        H  0.15444966  0.72723984  0.91567154     0.43700
H600        H  0.22642489  0.65925650  0.96965372     0.43700
C601        C  0.03449921  0.52849491  0.01558195    -0.05400
C602        C  0.03116665  0.51128300  0.97696857    -0.32800
C603        C  0.00057831  0.48922920  0.96032021     0.36400
C604        C  0.97237822  0.48357023  0.98256147    -0.05800
C605        C  0.97571153  0.50133375  0.02058316    -0.32700
C606        C  0.00627861  0.52350365  0.03710691     0.36300
H607        H  0.05239981  0.51482576  0.95952753     0.16700
O608        O  0.99867205  0.47327451  0.92238321    -0.60200
H609        H  0.95448304  0.49782954  0.03799987     0.16700
O610        O  0.00814925  0.54033713  0.07414073    -0.60300
H611        H  0.00802864  0.52678344  0.09854174     0.43700
H612        H  0.99627165  0.48615709  0.89903030     0.43700
C613        C  0.51808838  0.70259411  0.71638434    -0.05400
C614        C  0.48528226  0.67881741  0.71663581    -0.32800
C615        C  0.47358596  0.65245485  0.68833410     0.36400
C616        C  0.49481635  0.64939855  0.65942663    -0.05800
C617        C  0.52799706  0.67156887  0.66190935    -0.32700
C618        C  0.53966062  0.69821252  0.68981521     0.36300
H619        H  0.46832743  0.68155393  0.73704840     0.16700
O620        O  0.44113655  0.63043373  0.68808427    -0.60200
H621        H  0.54472170  0.66928321  0.64043634     0.16700
O622        O  0.57213647  0.72009536  0.69042262    -0.60300
H623        H  0.57611159  0.73382557  0.66443520     0.43700
H624        H  0.43880792  0.61200233  0.70543967     0.43700
C625        C  0.82249569  0.95612312  0.95097432    -0.05400
C626        C  0.79960429  0.96395567  0.96629355    -0.32800
C627        C  0.80883643  0.99067595  0.99344064     0.36400
C628        C  0.84121614  0.00931271  0.00697834    -0.05800
C629        C  0.86422479  0.00205287  0.99043371    -0.32700
C630        C  0.85517113  0.97594860  0.96234499     0.36300
H631        H  0.77434197  0.94889881  0.95789939     0.16700
O632        O  0.78566762  0.99702232  0.00871101    -0.60200
H633        H  0.88929679  0.01614599  0.00026425     0.16700
O634        O  0.87801206  0.96842129  0.94929897    -0.60300
H635        H  0.88913011  0.98278331  0.92425118     0.43700
H636        H  0.78488036  0.01192266  0.98710033     0.43700
C637        C  0.63769743  0.82033352  0.81900862    -0.05400
C638        C  0.66457838  0.84421235  0.79628896    -0.32800
C639        C  0.69620138  0.85473569  0.81058198     0.36400
C640        C  0.70159909  0.84157088  0.84857476    -0.05800
C641        C  0.67473035  0.81784279  0.87139488    -0.32700
C642        C  0.64315467  0.80698543  0.85676416     0.36300
H643        H  0.66113999  0.85472533  0.76705537     0.16700
O644        O  0.72157034  0.87756341  0.78666472    -0.60200
H645        H  0.67814366  0.80723067  0.90054726     0.16700
O646        O  0.61785849  0.78337375  0.87990476    -0.60300
H647        H  0.61491605  0.76284082  0.86814989     0.43700
H648        H  0.72650930  0.89846096  0.79960214     0.43700
C649        C  0.50735172  0.16077299  0.84671512    -0.05400
C650        C  0.52939114  0.18559824  0.81952595    -0.32800
C651        C  0.51903093  0.20114401  0.79072536     0.36400
C652        C  0.48618103  0.19240236  0.78941194    -0.05800
C653        C  0.46402489  0.16701956  0.81587309    -0.32700
C654        C  0.47432733  0.15106115  0.84408654     0.36300
H655        H  0.55491438  0.19347016  0.82128076     0.16700
O656        O  0.54161027  0.22643624  0.76652065    -0.60200
H657        H  0.43871510  0.16012117  0.81566607     0.16700
O658        O  0.45233574  0.12786935  0.87148024    -0.60300
H659        H  0.44146664  0.10799687  0.85365160     0.43700
H660        H  0.54307553  0.21676113  0.73867915     0.43700
C661        C  0.49246232  0.83915877  0.15357900    -0.05400
C662        C  0.46870038  0.81170488  0.17536862    -0.32800
C663        C  0.47723692  0.79550948  0.20563459     0.36400
C664        C  0.51007226  0.80625347  0.21373054    -0.05800
C665        C  0.53372847  0.83485484  0.19409907    -0.32700
C666        C  0.52513345  0.85155597  0.16469733     0.36300
H667        H  0.44335488  0.80222682  0.16810591     0.16700
O668        O  0.45331972  0.76837944  0.22540732    -0.60200
H669        H  0.55908621  0.84378900  0.20057967     0.16700
O670        O  0.54893760  0.87925785  0.14594856    -0.60300
H671        H  0.55608239  0.87211926  0.12004369     0.43700
H672        H  0.44989030  0.75028292  0.20628138     0.43700
C673        C  0.48448985  0.84110243  0.94353996    -0.05400
C674        C  0.46940331  0.80801291  0.93468579    -0.32800
C675        C  0.48060789  0.79645854  0.90079432     0.36400
C676        C  0.50682965  0.81822614  0.87471262    -0.05800
C677        C  0.52059888  0.85136458  0.88234377    -0.32700
C678        C  0.50973009  0.86280613  0.91632663     0.36300
H679        H  0.44978160  0.79101766  0.95513731     0.16700
O680        O  0.46583423  0.76395071  0.89363860    -0.60200
H681        H  0.54036706  0.86864916  0.86234079     0.16700
O682        O  0.52434064  0.89537263  0.92301626    -0.60300
H683        H  0.51045497  0.90213950  0.90781436     0.43700
H684        H  0.47665502  0.75617982  0.91371916     0.43700
C685        C  0.49277943  0.96951543  0.01570303    -0.05400
C686        C  0.47721523  0.97423455  0.98013557    -0.32800
C687        C  0.48661915  0.00513090  0.96494202     0.36400
C688        C  0.51163749  0.03236319  0.98592078    -0.05800
C689        C  0.52711577  0.02771398  0.02179206    -0.32700
C690        C  0.51807749  0.99667868  0.03650874     0.36300
H691        H  0.45782274  0.95380307  0.96343471     0.16700
O692        O  0.47104839  0.00828659  0.92948730    -0.60200
H693        H  0.54656738  0.04820705  0.03831128     0.16700
O694        O  0.53456989  0.99329100  0.07066995    -0.60300
H695        H  0.52275089  0.99341867  0.09714838     0.43700
H696        H  0.48264724  0.00645331  0.90384001     0.43700
C697        C  0.15011242  0.52708374  0.12074892    -0.05400
C698        C  0.18272498  0.53550231  0.12205036    -0.32800
C699        C  0.19298662  0.51892529  0.14897034     0.36400
C700        C  0.17056943  0.49337948  0.17523140    -0.05800
C701        C  0.13761930  0.48326785  0.17148966    -0.32700
C702        C  0.12731155  0.49996931  0.14457099     0.36300
H703        H  0.20062649  0.55599211  0.10373831     0.16700
O704        O  0.22526729  0.52867896  0.15053579    -0.60200
H705        H  0.12004177  0.46351885  0.19118969     0.16700
O706        O  0.09506783  0.49036058  0.14325367    -0.60300
H707        H  0.08698750  0.47797579  0.11578524     0.43700
H708        H  0.22780934  0.51330231  0.13171546     0.43700
C709        C  0.18423534  0.14274097  0.54922206    -0.05400
C710        C  0.20732409  0.17180262  0.52992146    -0.32800
C711        C  0.19786978  0.18886439  0.50222511     0.36400
C712        C  0.16492805  0.17625937  0.49222836    -0.05800
C713        C  0.14190008  0.14766532  0.51265482    -0.32700
C714        C  0.15127542  0.13110579  0.54108784     0.36300
H715        H  0.23281237  0.18101216  0.53572536     0.16700
O716        O  0.22111968  0.21672303  0.48314864    -0.60200
H717        H  0.11642015  0.13758905  0.50575373     0.16700
O718        O  0.12805186  0.10260622  0.55884816    -0.60300
H719        H  0.12538492  0.08578406  0.53777133     0.43700
H720        H  0.22678004  0.23369008  0.50542798     0.43700
C721        C  0.16135835  0.30620403  0.35145174    -0.05400
C722        C  0.18606120  0.33354665  0.37230065    -0.32800
C723        C  0.19620849  0.36457576  0.35637502     0.36400
C724        C  0.18149494  0.36874848  0.31898790    -0.05800
C725        C  0.15723700  0.34136647  0.29784200    -0.32700
C726        C  0.14739166  0.31044896  0.31337389     0.36300
H727        H  0.19754524  0.33093559  0.40115460     0.16700
O728        O  0.22059908  0.39054371  0.37756586    -0.60200
H729        H  0.14573820  0.34383801  0.26890488     0.16700
O730        O  0.12374144  0.28457906  0.29113253    -0.60300
H731        H  0.13534363  0.27949722  0.26853335     0.43700
H732        H  0.20993955  0.39513220  0.40200913     0.43700
C733        C  0.15351799  0.62288197  0.62880797    -0.05400
C734        C  0.18653853  0.64589283  0.63139803    -0.32800
C735        C  0.19758526  0.67263899  0.65902848     0.36400
C736        C  0.17543455  0.67732129  0.68383233    -0.05800
C737        C  0.14231830  0.65528158  0.67955016    -0.32700
C738        C  0.13132184  0.62804472  0.65284588     0.36300
H739        H  0.20406108  0.64250606  0.61330176     0.16700
O740        O  0.23010697  0.69420907  0.66128395    -0.60200
H741        H  0.12494922  0.65840212  0.69845713     0.16700
O742        O  0.09888720  0.60611851  0.65169687    -0.60300
H743        H  0.09030747  0.61303838  0.62721185     0.43700
H744        H  0.23882660  0.68460031  0.68190940     0.43700
C745        C  0.16125024  0.51242454  0.45677797    -0.05400
C746        C  0.14212385  0.48118327  0.44024194    -0.32800
C747        C  0.15112246  0.47123017  0.40265206     0.36400
C748        C  0.18043484  0.49215203  0.38151303    -0.05800
C749        C  0.20002854  0.52328440  0.39832093    -0.32700
C750        C  0.19040562  0.53364296  0.43535251     0.36300
H751        H  0.11961972  0.46442967  0.45607020     0.16700
O752        O  0.13136747  0.44057153  0.38751765    -0.60200
H753        H  0.22253575  0.53978977  0.38230521     0.16700
O754        O  0.20960531  0.56446769  0.45019420    -0.60300
H755        H  0.22609871  0.56362562  0.46876847     0.43700
H756        H  0.11552609  0.44210356  0.36835139     0.43700
C757        C  0.83805870  0.32055006  0.32374473    -0.05400
C758        C  0.81648141  0.32066408  0.35457658    -0.32800
C759        C  0.82627978  0.34603842  0.38410601     0.36400
C760        C  0.85785661  0.37263280  0.38194582    -0.05800
C761        C  0.88002151  0.37169522  0.35263751    -0.32700
C762        C  0.87046910  0.34558052  0.32416792     0.36300
H763        H  0.79154005  0.30134840  0.35499578     0.16700
O764        O  0.80401228  0.34567338  0.41259304    -0.60200
H765        H  0.90452527  0.39176285  0.35071210     0.16700
O766        O  0.89220832  0.34613271  0.29452099    -0.60300
H767        H  0.90544246  0.33915389  0.31097173     0.43700
H768        H  0.80287307  0.33150638  0.43680205     0.43700
C769        C  0.97051676  0.48605347  0.49110668    -0.05400
C770        C  0.99765740  0.50624811  0.46577769    -0.32800
C771        C  0.02895426  0.51622261  0.48049667     0.36400
C772        C  0.03388310  0.50664981  0.52186236    -0.05800
C773        C  0.00673999  0.48633272  0.54728579    -0.32700
C774        C  0.97530705  0.47601603  0.53227478     0.36300
H775        H  0.99467840  0.51412296  0.43396257     0.16700
O776        O  0.05452573  0.53526766  0.45386388    -0.60200
H777        H  0.00983363  0.47842036  0.57901158     0.16700
O778        O  0.94954911  0.45593613  0.55801269    -0.60300
H779        H  0.94651732  0.47033799  0.57819965     0.43700
H780        H  0.05787298  0.52006712  0.43577084     0.43700
C781        C  0.48360850  0.28820730  0.29100010    -0.05400
C782        C  0.51669710  0.30945565  0.29741201    -0.32800
C783        C  0.52737839  0.33628884  0.32454616     0.36400
C784        C  0.50486556  0.34263139  0.34535678    -0.05800
C785        C  0.47180419  0.32235243  0.33720449    -0.32700
C786        C  0.46107373  0.29501058  0.31079369     0.36300
H787        H  0.53439513  0.30453857  0.28279210     0.16700
O788        O  0.55992021  0.35568784  0.33139773    -0.60200
H789        H  0.45416143  0.32686556  0.35287982     0.16700
O790        O  0.42854422  0.27514807  0.30449904    -0.60300
H791        H  0.42098225  0.26069983  0.33017536     0.43700
H792        H  0.56725227  0.37248368  0.30856489     0.43700
C793        C  0.49355874  0.18033156  0.12094234    -0.05400
C794        C  0.47349124  0.15011031  0.10209618    -0.32800
C795        C  0.48349977  0.13979739  0.06597563     0.36400
C796        C  0.51437369  0.15966050  0.04787464    -0.05800
C797        C  0.53457811  0.19007856  0.06640454    -0.32700
C798        C  0.52416454  0.20068691  0.10234849     0.36300
H799        H  0.44973353  0.13417445  0.11549298     0.16700
O800        O  0.46289482  0.10992178  0.04904119    -0.60200
H801        H  0.55832276  0.20573736  0.05280499     0.16700
O802        O  0.54445771  0.23042384  0.11980052    -0.60300
H803        H  0.53976580  0.24542722  0.10354814     0.43700
H804        H  0.46837149  0.09510173  0.06427381     0.43700
C805        C  0.18529050  0.04094079  0.05487146    -0.05400
C806        C  0.20860795  0.03561122  0.03462749    -0.32800
C807        C  0.19933684  0.00918256  0.00676682     0.36400
C808        C  0.16636759  0.98832664  0.99778131    -0.05800
C809        C  0.14319317  0.99291476  0.01956194    -0.32700
C810        C  0.15234510  0.01866190  0.04818931     0.36300
H811        H  0.23408565  0.05253781  0.03932614     0.16700
O812        O  0.22266130  0.00550694  0.98597116    -0.60200
H813        H  0.11769922  0.97700960  0.01324067     0.16700
O814        O  0.12884112  0.02339579  0.06628511    -0.60300
H815        H  0.12137512  0.00941869  0.09242288     0.43700
H816        H  0.22859540  0.99360526  0.00684177     0.43700
C817        C  0.17645173  0.15894285  0.21406897    -0.05400
C818        C  0.14648611  0.13868934  0.23388522    -0.32800
C819        C  0.13600206  0.14933669  0.26965776     0.36400
C820        C  0.15595062  0.18041024  0.28688446    -0.05800
C821        C  0.18578642  0.20066376  0.26679199    -0.32700
C822        C  0.19601796  0.19027022  0.23073956     0.36300
H823        H  0.13106643  0.11457375  0.22150443     0.16700
O824        O  0.10680798  0.12871545  0.28850910    -0.60200
H825        H  0.20145776  0.22471596  0.27923350     0.16700
O826        O  0.22558364  0.21079655  0.21266107    -0.60300
H827        H  0.24120385  0.20700971  0.22907026     0.43700
H828        H  0.09067580  0.13134912  0.27152277     0.43700
C829        C  0.36490018  0.17501381  0.18722700    -0.05400
C830        C  0.36113838  0.18734926  0.14755640    -0.32800
C831        C  0.33039660  0.17890665  0.13167472     0.36400
C832        C  0.30248135  0.15771510  0.15548211    -0.05800
C833        C  0.30625876  0.14546504  0.19522181    -0.32700
C834        C  0.33698864  0.15371275  0.21093585     0.36300
H835        H  0.38213903  0.20355486  0.12849702     0.16700
O836        O  0.32800110  0.19097804  0.09230602    -0.60200
H837        H  0.28525976  0.12917250  0.21421697     0.16700
O838        O  0.33936721  0.14103394  0.24979960    -0.60300
H839        H  0.33587218  0.11940806  0.24249983     0.43700
H840        H  0.33080097  0.21242355  0.09898523     0.43700
C841        C  0.83263337  0.50642299  0.81947547    -0.05400
C842        C  0.86575933  0.51816876  0.82523978    -0.32800
C843        C  0.87648010  0.50241961  0.85314125     0.36400
C844        C  0.85395848  0.47519693  0.87681706    -0.05800
C845        C  0.82092623  0.46456820  0.87280494    -0.32700
C846        C  0.81018130  0.47970011  0.84401295     0.36300
H847        H  0.88330378  0.53868095  0.80661516     0.16700
O848        O  0.90899971  0.51376021  0.85697482    -0.60200
H849        H  0.80326439  0.44351215  0.89044836     0.16700
O850        O  0.77759646  0.46765419  0.83929859    -0.60300
H851        H  0.77232112  0.48055875  0.85935985     0.43700
H852        H  0.91449972  0.50402997  0.83230081     0.43700
C853        C  0.82508739  0.50865657  0.61828431    -0.05400
C854        C  0.80213800  0.48105781  0.59577442    -0.32800
C855        C  0.81142616  0.46874854  0.56058962     0.36400
C856        C  0.84390112  0.48457154  0.54692572    -0.05800
C857        C  0.86664150  0.51212458  0.56929073    -0.32700
C858        C  0.85763580  0.52405610  0.60470079     0.36300
H859        H  0.77700458  0.46886829  0.60560367     0.16700
O860        O  0.78844680  0.44216353  0.53877354    -0.60200
H861        H  0.89179724  0.52446254  0.55947550     0.16700
O862        O  0.88108635  0.55067467  0.62598800    -0.60300
H863        H  0.88287957  0.56933338  0.60977408     0.43700
H864        H  0.78574002  0.42352109  0.55596545     0.43700
C865        C  0.83256956  0.82423621  0.50860908    -0.05400
C866        C  0.85502425  0.85350938  0.48925773    -0.32800
C867        C  0.84496175  0.86983805  0.46161168     0.36400
C868        C  0.81187123  0.85714652  0.45309465    -0.05800
C869        C  0.78935909  0.82738491  0.47131272    -0.32700
C870        C  0.79954454  0.81067571  0.49844447     0.36300
H871        H  0.88055777  0.86420960  0.49633217     0.16700
O872        O  0.86759664  0.89903782  0.44488690    -0.60200
H873        H  0.76380397  0.81732218  0.46499825     0.16700
O874        O  0.77696675  0.78175239  0.51589148    -0.60300
H875        H  0.77090449  0.78715680  0.54423801     0.43700
H876        H  0.86950205  0.91516284  0.46666929     0.43700
C877        C  0.84695020  0.82020826  0.71068717    -0.05400
C878        C  0.81733301  0.79962291  0.73092897    -0.32800
C879        C  0.80747155  0.80924121  0.76801361     0.36400
C880        C  0.82691770  0.84043313  0.78521791    -0.05800
C881        C  0.85673933  0.86110271  0.76518344    -0.32700
C882        C  0.86695410  0.85108354  0.72841620     0.36300
H883        H  0.80161702  0.77572624  0.71801894     0.16700
O884        O  0.77813434  0.78819027  0.78621868    -0.60200
H885        H  0.87220627  0.88503814  0.77809562     0.16700
O886        O  0.89623752  0.87179106  0.70983334    -0.60300
H887        H  0.89155083  0.88386967  0.68766221     0.43700
H888        H  0.78250678  0.77461692  0.80617731     0.43700
C889        C  0.84446941  0.69561284  0.64239409    -0.05400
C890        C  0.86364507  0.69289460  0.67493093    -0.32800
C891        C  0.85580257  0.66285853  0.69222285     0.36400
C892        C  0.82808232  0.63480118  0.67743298    -0.05800
C893        C  0.80938492  0.63752118  0.64426845    -0.32700
C894        C  0.81727322  0.66746894  0.62688781     0.36300
H895        H  0.88480079  0.71416089  0.68723080     0.16700
O896        O  0.87536736  0.66135521  0.72360269    -0.60200
H897        H  0.78825324  0.61630135  0.63182955     0.16700
O898        O  0.79839198  0.66877992  0.59431857    -0.60300
H899        H  0.78047865  0.66955589  0.60946251     0.43700
H900        H  0.89114225  0.65759410  0.70747030     0.43700
C901        C  0.00967394  0.16964786  0.98384887    -0.05400
C902        C  0.98369801  0.17497141  0.97848219    -0.32800
C903        C  0.95653754  0.15952270  0.00544734     0.36400
C904        C  0.95556920  0.13909919  0.03918497    -0.05800
C905        C  0.98251588  0.13535087  0.04594139    -0.32700
C906        C  0.00933304  0.15026353  0.01831394     0.36300
H907        H  0.98375986  0.18986212  0.95196830     0.16700
O908        O  0.93098976  0.16433946  0.99825273    -0.60200
H909        H  0.98225556  0.11972562  0.07152002     0.16700
O910        O  0.03481601  0.14521657  0.02468961    -0.60300
H911        H  0.05134766  0.16465207  0.04021202     0.43700
H912        H  0.91853773  0.14947278  0.97418463     0.43700
C913        C  0.17351955  0.15766040  0.00817541    -0.05400
C914        C  0.14555206  0.13447097  0.98652231    -0.32800
C915        C  0.12932947  0.14358213  0.95692116     0.36400
C916        C  0.14075920  0.17637603  0.94882833    -0.05800
C917        C  0.16944081  0.19953184  0.96903376    -0.32700
C918        C  0.18593975  0.19040179  0.99821607     0.36300
H919        H  0.13561415  0.10914858  0.99356578     0.16700
O920        O  0.10123459  0.12028839  0.93817371    -0.60200
H921        H  0.17853949  0.22488683  0.96326776     0.16700
O922        O  0.21329249  0.21377201  0.01832377    -0.60300
H923        H  0.20547561  0.22075693  0.04368811     0.43700
H924        H  0.08379489  0.11740602  0.95839547     0.43700
C925        C  0.37248166  0.52168200  0.62262499    -0.05400
C926        C  0.37004292  0.49606854  0.64766271    -0.32800
C927        C  0.34358895  0.47840988  0.67530266     0.36400
C928        C  0.31940039  0.48678614  0.67903511    -0.05800
C929        C  0.32146703  0.51185741  0.65324482    -0.32700
C930        C  0.34746774  0.52899273  0.62489339     0.36300
H931        H  0.38908407  0.49012895  0.64654406     0.16700
O932        O  0.34282865  0.45456610  0.70062959    -0.60200
H933        H  0.30314585  0.51873452  0.65574589     0.16700
O934        O  0.34917746  0.55420264  0.60182276    -0.60300
H935        H  0.33634769  0.54439822  0.57507482     0.43700
H936        H  0.33195797  0.43485419  0.68248244     0.43700
C937        C  0.18785230  0.47490426  0.71966774    -0.05400
C938        C  0.19827329  0.50786364  0.71881497    -0.32800
C939        C  0.18422335  0.52000777  0.69037632     0.36400
C940        C  0.15868836  0.49901367  0.66287747    -0.05800
C941        C  0.14670343  0.46578302  0.66585703    -0.32700
C942        C  0.16132291  0.45368291  0.69363411     0.36300
H943        H  0.21870923  0.52460124  0.73835790     0.16700
O944        O  0.19655395  0.55262977  0.68848805    -0.60200
H945        H  0.12708841  0.44931013  0.64495971     0.16700
O946        O  0.15038686  0.42128682  0.69360388    -0.60300
H947        H  0.13592310  0.41270655  0.71926663     0.43700
H948        H  0.18436372  0.55725054  0.71070109     0.43700
C949        C  0.18927861  0.35742852  0.82004886    -0.05400
C950        C  0.17515833  0.35274968  0.86153309    -0.32800
C951        C  0.15362574  0.32180087  0.87687589     0.36400
C952        C  0.14522528  0.29482241  0.85018736    -0.05800
C953        C  0.15983310  0.29946263  0.80913485    -0.32700
C954        C  0.18183533  0.33032255  0.79414951     0.36300
H955        H  0.18090554  0.37315975  0.88233642     0.16700
O956        O  0.14097066  0.31833387  0.91793721    -0.60200
H957        H  0.15416134  0.27906999  0.78833254     0.16700
O958        O  0.19609723  0.33357260  0.75427681    -0.60300
H959        H  0.18040276  0.33311088  0.73281630     0.43700
H960        H  0.15563247  0.31491424  0.93713325     0.43700
C961        C  0.68261724  0.16635002  0.83051217    -0.05400
C962        C  0.68388043  0.18577020  0.86549760    -0.32800
C963        C  0.65706702  0.17620581  0.89279335     0.36400
C964        C  0.62825661  0.14699231  0.88472482    -0.05800
C965        C  0.62782492  0.12683586  0.85114765    -0.32700
C966        C  0.65476925  0.13620741  0.82437542     0.36300
H967        H  0.70525973  0.20906677  0.87050864     0.16700
O968        O  0.65882416  0.19634805  0.92571256    -0.60200
H969        H  0.60600458  0.10427923  0.84430309     0.16700
O970        O  0.65239389  0.11723134  0.78956087    -0.60300
H971        H  0.66132607  0.10377518  0.80003639     0.43700
H972        H  0.65333155  0.21164575  0.91194269     0.43700
C973        C  0.80913128  0.29219143  0.78850847    -0.05400
C974        C  0.83900767  0.29941979  0.80663287    -0.32800
C975        C  0.85618725  0.32638002  0.83366324     0.36400
C976        C  0.84293524  0.34590748  0.84422473    -0.05800
C977        C  0.81369090  0.33932772  0.82473268    -0.32700
C978        C  0.79702581  0.31303428  0.79676372     0.36300
H979        H  0.84875486  0.28372124  0.80059323     0.16700
O980        O  0.88475395  0.33209934  0.85180738    -0.60200
H981        H  0.80316456  0.35417685  0.83211190     0.16700
O982        O  0.76765048  0.30652127  0.78055197    -0.60300
H983        H  0.77277050  0.32096736  0.75510170     0.43700
H984        H  0.90140295  0.34424877  0.82936999     0.43700
C985        C  0.04332481  0.18761113  0.45348536    -0.05400
C986        C  0.03826639  0.20911118  0.47878554    -0.32800
C987        C  0.01061799  0.19802255  0.50505065     0.36400
C988        C  0.98802977  0.16481803  0.50739085    -0.05800
C989        C  0.99250943  0.14361650  0.48068419    -0.32700
C990        C  0.01956035  0.15476056  0.45356631     0.36300
H991        H  0.05620933  0.23448404  0.47905668     0.16700
O992        O  0.00717415  0.21957031  0.53052367    -0.60200
H993        H  0.97541234  0.11801898  0.48176655     0.16700
O994        O  0.02382081  0.13286349  0.43010572    -0.60300
H995        H  0.01197447  0.12998224  0.40246179     0.43700
H996        H  0.99473175  0.22665184  0.51244982     0.43700
C997        C  0.82138701  0.98409575  0.49079085    -0.05400
C998        C  0.80948210  0.00512656  0.49750266    -0.32800
C999        C  0.82597793  0.03208725  0.52462914     0.36400
C1000       C  0.85436689  0.03786079  0.54633939    -0.05800
C1001       C  0.86466677  0.01530886  0.54243314    -0.32700
C1002       C  0.84853578  0.98871345  0.51475162     0.36300
H1003       H  0.78840545  0.00170271  0.47982151     0.16700
O1004       O  0.81433614  0.05282435  0.52938066    -0.60200
H1005       H  0.88630645  0.01919385  0.55903213     0.16700
O1006       O  0.86019354  0.96797154  0.51023409    -0.60300
H1007       H  0.84729622  0.95012485  0.53075995     0.43700
H1008       H  0.82216386  0.06699550  0.50344027     0.43700
C1009       C  0.97560576  0.14924297  0.71122259    -0.05400
C1010       C  0.98520762  0.17904540  0.73099678    -0.32800
C1011       C  0.00573852  0.18937286  0.76706954     0.36400
C1012       C  0.01793161  0.17019039  0.78360912    -0.05800
C1013       C  0.00837164  0.14031754  0.76393436    -0.32700
C1014       C  0.98704094  0.12959572  0.72835253     0.36300
H1015       H  0.97666130  0.19452953  0.71853711     0.16700
O1016       O  0.01464290  0.21888083  0.78483518    -0.60200
H1017       H  0.01727177  0.12512114  0.77633944     0.16700
O1018       O  0.97853777  0.10047858  0.70968281    -0.60300
H1019       H  0.95978559  0.08443851  0.72685200     0.43700
H1020       H  0.99705857  0.21496194  0.80543832     0.43700
C1021       C  0.85123751  0.15293101  0.64540810    -0.05400
C1022       C  0.85130199  0.17957697  0.62648742    -0.32800
C1023       C  0.83165931  0.19113131  0.64301007     0.36400
C1024       C  0.81102566  0.17567360  0.67874799    -0.05800
C1025       C  0.81037639  0.14853574  0.69679635    -0.32700
C1026       C  0.83008909  0.13713493  0.68051522     0.36300
H1027       H  0.86722922  0.19205025  0.59939807     0.16700
O1028       O  0.83314758  0.21769431  0.62417329    -0.60200
H1029       H  0.79450823  0.13599275  0.72390912     0.16700
O1030       O  0.82866171  0.11071028  0.69970395    -0.60300
H1031       H  0.81283330  0.09210440  0.68215540     0.43700
H1032       H  0.85102766  0.23635925  0.63935358     0.43700
C1033       C  0.34367140  0.84115848  0.64880732    -0.05400
C1034       C  0.31328467  0.81999375  0.63104626    -0.32800
C1035       C  0.28603731  0.80423111  0.65760705     0.36400
C1036       C  0.28899956  0.80869461  0.70310272    -0.05800
C1037       C  0.31944393  0.82984005  0.72106943    -0.32700
C1038       C  0.34664661  0.84651611  0.69407356     0.36300
H1039       H  0.31069471  0.81544100  0.59627964     0.16700
O1040       O  0.25698057  0.78287088  0.63895807    -0.60200
H1041       H  0.32214995  0.83333193  0.75600507     0.16700
O1042       O  0.37626989  0.86631435  0.71240859    -0.60300
H1043       H  0.37727498  0.88727614  0.71635958     0.43700
H1044       H  0.24739629  0.79603773  0.62972678     0.43700
C1045       C  0.47624938  0.84746030  0.62468875    -0.05400
C1046       C  0.46146424  0.81450068  0.63353000    -0.32800
C1047       C  0.47646279  0.80238341  0.66036047     0.36400
C1048       C  0.50723690  0.82324935  0.67823394    -0.05800
C1049       C  0.52278390  0.85610152  0.66758440    -0.32700
C1050       C  0.50724887  0.86834875  0.64165091     0.36300
H1051       H  0.43749185  0.79817975  0.62108188     0.16700
O1052       O  0.46028777  0.77017307  0.66995738    -0.60200
H1053       H  0.54641579  0.87254590  0.68088240     0.16700
O1054       O  0.52267499  0.90063621  0.63263692    -0.60300
H1055       H  0.51878805  0.91067996  0.65843207     0.43700
H1056       H  0.46573628  0.75988309  0.64595937     0.43700
C1057       C  0.71269242  0.19321003  0.28469878    -0.05400
C1058       C  0.69050500  0.20401733  0.28941042    -0.32800
C1059       C  0.66452887  0.18887594  0.31851234     0.36400
C1060       C  0.66007398  0.16214339  0.34301901    -0.05800
C1061       C  0.68088435  0.14994365  0.33599313    -0.32700
C1062       C  0.70708771  0.16530958  0.30726400     0.36300
H1063       H  0.69420100  0.22525660  0.27217315     0.16700
O1064       O  0.64412570  0.20094573  0.32355467    -0.60200
H1065       H  0.67765016  0.12923695  0.35419474     0.16700
O1066       O  0.72764783  0.15340673  0.30256866    -0.60300
H1067       H  0.71982370  0.13940841  0.27642936     0.43700
H1068       H  0.62538081  0.18750666  0.30448657     0.43700
C1069       C  0.52573803  0.14551961  0.38030988    -0.05400
C1070       C  0.50401969  0.12408422  0.34914931    -0.32800
C1071       C  0.48596743  0.13293701  0.32251223     0.36400
C1072       C  0.48987444  0.16387480  0.32627091    -0.05800
C1073       C  0.51008528  0.18456490  0.35904757    -0.32700
C1074       C  0.52779707  0.17560620  0.38607209     0.36300
H1075       H  0.50185937  0.10075593  0.34425491     0.16700
O1076       O  0.46683014  0.11225333  0.29047733    -0.60200
H1077       H  0.51311212  0.20835680  0.36268832     0.16700
O1078       O  0.54804839  0.19705328  0.41666496    -0.60300
H1079       H  0.56825484  0.21157050  0.40074334     0.43700
H1080       H  0.44570461  0.09818451  0.30467439     0.43700
C1081       C  0.64636334  0.15467329  0.55121195    -0.05400
C1082       C  0.65662979  0.18530654  0.56872218    -0.32800
C1083       C  0.67707028  0.19635925  0.60512118     0.36400
C1084       C  0.68679199  0.17630364  0.62537259    -0.05800
C1085       C  0.67583608  0.14536371  0.60843016    -0.32700
C1086       C  0.65600674  0.13457257  0.57160959     0.36300
H1087       H  0.64940585  0.20105239  0.55354408     0.16700
O1088       O  0.68684471  0.22652861  0.62107317    -0.60200
H1089       H  0.68307213  0.12954485  0.62337333     0.16700
O1090       O  0.64626813  0.10433133  0.55583551    -0.60300
H1091       H  0.62693579  0.08967645  0.57323277     0.43700
H1092       H  0.70611763  0.24120134  0.60358523     0.43700
C1093       C  0.52630407  0.03177681  0.48308545    -0.05400
C1094       C  0.53250265  0.00658564  0.47526776    -0.32800
C1095       C  0.51182180  0.97560825  0.49149340     0.36400
C1096       C  0.48434434  0.96932625  0.51618224    -0.05800
C1097       C  0.47804662  0.99448027  0.52365448    -0.32700
C1098       C  0.49870356  0.02541685  0.50747502     0.36300
H1099       H  0.55370956  0.01097388  0.45697939     0.16700
O1100       O  0.51931798  0.95195526  0.48411101    -0.60200
H1101       H  0.45684706  0.99015102  0.54191077     0.16700
O1102       O  0.49111493  0.04902211  0.51473634    -0.60300
H1103       H  0.50021818  0.05796514  0.54381529     0.43700
H1104       H  0.50962880  0.94264181  0.45540923     0.43700
C1105       C  0.00358640  0.83259812  0.47136882    -0.05400
C1106       C  0.97620662  0.83316961  0.45628957    -0.32800
C1107       C  0.94874511  0.82207492  0.48230458     0.36400
C1108       C  0.94861701  0.81098753  0.52468131    -0.05800
C1109       C  0.97581341  0.81019871  0.53997202    -0.32700
C1110       C  0.00299603  0.82023693  0.51317778     0.36300
H1111       H  0.97605882  0.84229968  0.42409117     0.16700
O1112       O  0.92234948  0.82281627  0.46634596    -0.60200
H1113       H  0.97581224  0.80147605  0.57248629     0.16700
O1114       O  0.02920790  0.81907149  0.52880485    -0.60300
H1115       H  0.02542662  0.79752267  0.52038238     0.43700
H1116       H  0.92618138  0.84459271  0.47345878     0.43700
C1117       C  0.13322586  0.95644439  0.46075082    -0.05400
C1118       C  0.16556110  0.97959623  0.45273822    -0.32800
C1119       C  0.18220259  0.00596479  0.48097440     0.36400
C1120       C  0.16611428  0.00977035  0.51707901    -0.05800
C1121       C  0.13328573  0.98708987  0.52366708    -0.32700
C1122       C  0.11707415  0.96039530  0.49633446     0.36300
H1123       H  0.17823875  0.97661401  0.42549629     0.16700
O1124       O  0.21405049  0.02777513  0.47292874    -0.60200
H1125       H  0.12021752  0.98949970  0.55088353     0.16700
O1126       O  0.08523503  0.93838797  0.50434899    -0.60300
H1127       H  0.08561021  0.92352403  0.52639644     0.43700
H1128       H  0.22626069  0.01790992  0.48503220     0.43700
C1129       C  0.32430909  0.83342892  0.17112508    -0.05400
C1130       C  0.34702671  0.86623299  0.16685941    -0.32800
C1131       C  0.37312303  0.87650654  0.13814710     0.36400
C1132       C  0.37652459  0.85384359  0.11290799    -0.05800
C1133       C  0.35241903  0.82134220  0.11473102    -0.32700
C1134       C  0.32652140  0.81104546  0.14373455     0.36300
H1135       H  0.34551056  0.88374729  0.18747376     0.16700
O1136       O  0.39582807  0.90860031  0.13629913    -0.60200
H1137       H  0.35458636  0.80361587  0.09544367     0.16700
O1138       O  0.30405382  0.77889979  0.14605269    -0.60300
H1139       H  0.28608850  0.77600374  0.12695277     0.43700
H1140       H  0.39126425  0.91646398  0.10888207     0.43700
C1141       C  0.19472617  0.71502689  0.21442343    -0.05400
C1142       C  0.20146218  0.68983293  0.21714297    -0.32800
C1143       C  0.18507447  0.66244350  0.19086236     0.36400
C1144       C  0.16084138  0.65942126  0.16197927    -0.05800
C1145       C  0.15226883  0.68338377  0.16170778    -0.32700
C1146       C  0.16924470  0.71123050  0.18723685     0.36300
H1147       H  0.22062264  0.69199252  0.23815814     0.16700
O1148       O  0.19299559  0.63874152  0.19356011    -0.60200
H1149       H  0.13358395  0.68139128  0.13986486     0.16700
O1150       O  0.16087003  0.73462779  0.18510831    -0.60300
H1151       H  0.17096582  0.74670202  0.15797030     0.43700
H1152       H  0.21301038  0.64664509  0.17608510     0.43700
C1153       C  0.32068515  0.82879694  0.37853521    -0.05400
C1154       C  0.33242535  0.80911499  0.39407721    -0.32800
C1155       C  0.35396492  0.81888202  0.42942690     0.36400
C1156       C  0.36334628  0.84834766  0.45066644    -0.05800
C1157       C  0.35142311  0.86786065  0.43508454    -0.32700
C1158       C  0.33049825  0.85844470  0.39938512     0.36300
H1159       H  0.32523827  0.78629121  0.37839702     0.16700
O1160       O  0.36489173  0.79900392  0.44362016    -0.60200
H1161       H  0.35826009  0.89061545  0.45074369     0.16700
O1162       O  0.31935724  0.87827044  0.38565174    -0.60300
H1163       H  0.29837650  0.87038866  0.40073098     0.43700
H1164       H  0.38464385  0.80514633  0.42627174     0.43700
C1165       C  0.19382945  0.82836925  0.31826393    -0.05400
C1166       C  0.19462670  0.85601580  0.30196880    -0.32800
C1167       C  0.17299091  0.86541991  0.31709174     0.36400
C1168       C  0.15014446  0.84731828  0.34963338    -0.05800
C1169       C  0.14905699  0.81942370  0.36551479    -0.32700
C1170       C  0.17055280  0.80987516  0.35012765     0.36300
H1171       H  0.21208950  0.87048156  0.27727320     0.16700
O1172       O  0.17462808  0.89251174  0.29988020    -0.60200
H1173       H  0.13136785  0.80478947  0.38988098     0.16700
O1174       O  0.16800152  0.78197706  0.36577461    -0.60300
H1175       H  0.17957529  0.78792525  0.39404457     0.43700
H1176       H  0.16012607  0.88490253  0.27418124     0.43700
C1177       C  0.67724254  0.50747188  0.32657221    -0.05400
C1178       C  0.67487245  0.48431237  0.35642529    -0.32800
C1179       C  0.64816898  0.46851019  0.38405931     0.36400
C1180       C  0.62252877  0.47486616  0.38109504    -0.05800
C1181       C  0.62541625  0.49897669  0.35244902    -0.32700
C1182       C  0.65282679  0.51570072  0.32588902     0.36300
H1183       H  0.69350038  0.47779480  0.35759200     0.16700
O1184       O  0.64634351  0.44515163  0.41145709    -0.60200
H1185       H  0.60602022  0.50432822  0.34983626     0.16700
O1186       O  0.65427754  0.53817209  0.29710275    -0.60300
H1187       H  0.66167984  0.55802123  0.31458059     0.43700
H1188       H  0.65837674  0.45681782  0.43794869     0.43700
C1189       C  0.80960233  0.51196551  0.29042150    -0.05400
C1190       C  0.83587408  0.53459056  0.31549114    -0.32800
C1191       C  0.85331543  0.52506113  0.34238004     0.36400
C1192       C  0.84395581  0.49229932  0.34560565    -0.05800
C1193       C  0.81880844  0.46996727  0.31900422    -0.32700
C1194       C  0.80211814  0.47959507  0.29104011     0.36300
H1195       H  0.84238597  0.55967189  0.31522329     0.16700
O1196       O  0.87778881  0.54760302  0.36778831    -0.60200
H1197       H  0.81154407  0.44470077  0.32056806     0.16700
O1198       O  0.77726741  0.45673062  0.26647516    -0.60300
H1199       H  0.78760661  0.45487349  0.23946583     0.43700
H1200       H  0.89718853  0.55708121  0.34883186     0.43700
C1201       C  0.98897831  0.82296400  0.01040796    -0.05400
C1202       C  0.99411159  0.85103011  0.98922826    -0.32800
C1203       C  0.02133419  0.86891432  0.96303868     0.36400
C1204       C  0.04434209  0.85905644  0.95773915    -0.05800
C1205       C  0.03853845  0.83019994  0.97739609    -0.32700
C1206       C  0.01092945  0.81198708  0.00312539     0.36300
H1207       H  0.97741412  0.85978584  0.99403661     0.16700
O1208       O  0.02588273  0.89680684  0.94442287    -0.60200
H1209       H  0.05576595  0.82202249  0.97344112     0.16700
O1210       O  0.00626124  0.78412508  0.02201207    -0.60300
H1211       H  0.01652734  0.79059953  0.05111199     0.43700
H1212       H  0.03738643  0.91371683  0.96675276     0.43700
C1213       C  0.85614879  0.80863175  0.04681882    -0.05400
C1214       C  0.83323341  0.78750960  0.01656113    -0.32800
C1215       C  0.81708855  0.79794482  0.98879475     0.36400
C1216       C  0.82459472  0.83023253  0.98996288    -0.05800
C1217       C  0.84644089  0.85097557  0.02134926    -0.32700
C1218       C  0.86166530  0.84026469  0.05021617     0.36300
H1219       H  0.82853091  0.76307213  0.01345406     0.16700
O1220       O  0.79609538  0.77714019  0.95825134    -0.60200
H1221       H  0.85231180  0.87586378  0.02282151     0.16700
O1222       O  0.88363015  0.86166456  0.07939239    -0.60300
H1223       H  0.87117297  0.85862348  0.10654573     0.43700
H1224       H  0.77496360  0.76538600  0.97335684     0.43700
C1225       C  0.98204262  0.82231427  0.21018647    -0.05400
C1226       C  0.99530220  0.80396240  0.22568880    -0.32800
C1227       C  0.01708469  0.81468428  0.26037818     0.36400
C1228       C  0.02647544  0.84457741  0.28021090    -0.05800
C1229       C  0.01385497  0.86339685  0.26419257    -0.32700
C1230       C  0.99144990  0.85229075  0.22983871     0.36300
H1231       H  0.98844685  0.78083948  0.21118021     0.16700
O1232       O  0.02882839  0.79550952  0.27476701    -0.60200
H1233       H  0.02071488  0.88640402  0.27906684     0.16700
O1234       O  0.97948505  0.87121030  0.21527292    -0.60300
H1235       H  0.95982178  0.86479113  0.23296232     0.43700
H1236       H  0.04958249  0.80324773  0.25913951     0.43700
C1237       C  0.85597612  0.69187506  0.15096161    -0.05400
C1238       C  0.83769166  0.68816978  0.18860165    -0.32800
C1239       C  0.81606286  0.65764718  0.20522900     0.36400
C1240       C  0.81249159  0.62980370  0.18460214    -0.05800
C1241       C  0.83071101  0.63343982  0.14683019    -0.32700
C1242       C  0.85233696  0.66405449  0.13009996     0.36300
H1243       H  0.83998772  0.70908723  0.20530614     0.16700
O1244       O  0.79863572  0.65546163  0.24183600    -0.60200
H1245       H  0.82826972  0.61246040  0.13013301     0.16700
O1246       O  0.86937408  0.66635689  0.09301767    -0.60300
H1247       H  0.88952791  0.66743510  0.10331911     0.43700
H1248       H  0.77882669  0.65485381  0.23097585     0.43700
C1249       C  0.65926601  0.49628347  0.84242942    -0.05400
C1250       C  0.66359308  0.47395057  0.81802293    -0.32800
C1251       C  0.68978958  0.48412033  0.78945698     0.36400
C1252       C  0.71274911  0.51709385  0.78574651    -0.05800
C1253       C  0.70781933  0.53950279  0.80887725    -0.32700
C1254       C  0.68097921  0.52936264  0.83634805     0.36300
H1255       H  0.64695916  0.44840521  0.82181472     0.16700
O1256       O  0.69353195  0.46149372  0.76700072    -0.60200
H1257       H  0.72519388  0.56496022  0.80630346     0.16700
O1258       O  0.67748770  0.55191452  0.85930592    -0.60300
H1259       H  0.66484306  0.55800106  0.83997148     0.43700
H1260       H  0.70748782  0.45671597  0.78569772     0.43700
C1261       C  0.52662765  0.37545396  0.87902312    -0.05400
C1262       C  0.50406932  0.37412353  0.84853842    -0.32800
C1263       C  0.48743773  0.34751065  0.82093169     0.36400
C1264       C  0.49373269  0.32193295  0.82277829    -0.05800
C1265       C  0.51532191  0.32260702  0.85425616    -0.32700
C1266       C  0.53139623  0.34886364  0.88263375     0.36300
H1267       H  0.50003283  0.39426466  0.84508633     0.16700
O1268       O  0.46717106  0.34801492  0.78981988    -0.60200
H1269       H  0.52026154  0.30297108  0.85623488     0.16700
O1270       O  0.55263193  0.34876311  0.91250549    -0.60300
H1271       H  0.57369714  0.35834165  0.89717366     0.43700
H1272       H  0.44553063  0.33758297  0.80366615     0.43700
C1273       C  0.64870987  0.48563736  0.04747923    -0.05400
C1274       C  0.66380598  0.51756623  0.06235571    -0.32800
C1275       C  0.68384261  0.52729923  0.09894797     0.36400
C1276       C  0.68955697  0.50514010  0.12154253    -0.05800
C1277       C  0.67514045  0.47331988  0.10635787    -0.32700
C1278       C  0.65445530  0.46336610  0.06998361     0.36300
H1279       H  0.65991599  0.53520172  0.04572998     0.16700
O1280       O  0.69795520  0.55876879  0.11217584    -0.60200
H1281       H  0.67927135  0.45596471  0.12332695     0.16700
O1282       O  0.64035720  0.43197979  0.05650174    -0.60300
H1283       H  0.62064967  0.42019686  0.07462773     0.43700
H1284       H  0.71958226  0.56969214  0.09826464     0.43700
C1285       C  0.34394456  0.50558753  0.15154275    -0.05400
C1286       C  0.33608921  0.52821475  0.16768143    -0.32800
C1287       C  0.30979221  0.51891873  0.19562838     0.36400
C1288       C  0.29068583  0.48648900  0.20780610    -0.05800
C1289       C  0.29869281  0.46387245  0.19239086    -0.32700
C1290       C  0.32543604  0.47328513  0.16498336     0.36300
H1291       H  0.34997596  0.55318458  0.15781213     0.16700
O1292       O  0.30198302  0.54143498  0.20898888    -0.60200
H1293       H  0.28392258  0.43875931  0.20120364     0.16700
O1294       O  0.33201659  0.45041199  0.14949702    -0.60300
H1295       H  0.34402294  0.44704216  0.17325201     0.43700
H1296       H  0.28621112  0.54043397  0.18721708     0.43700
C1297       C  0.47631217  0.62255750  0.12077575    -0.05400
C1298       C  0.46640119  0.64549534  0.12060125    -0.32800
C1299       C  0.48012506  0.67166208  0.14922252     0.36400
C1300       C  0.50525606  0.67612777  0.17739725    -0.05800
C1301       C  0.51684226  0.65447775  0.17545781    -0.32700
C1302       C  0.50208747  0.62741633  0.14805725     0.36300
H1303       H  0.44659670  0.64217949  0.09998033     0.16700
O1304       O  0.46866184  0.69271682  0.14955270    -0.60200
H1305       H  0.53617933  0.65757508  0.19687126     0.16700
O1306       O  0.51289820  0.60583850  0.14834277    -0.60300
H1307       H  0.50246028  0.59191552  0.17400979     0.43700
H1308       H  0.44845471  0.68194272  0.16689599     0.43700
C1309       C  0.35910605  0.51249261  0.94792535    -0.05400
C1310       C  0.34467049  0.53013651  0.93377846    -0.32800
C1311       C  0.32274725  0.51906545  0.89881416     0.36400
C1312       C  0.31523434  0.49008349  0.87751769    -0.05800
C1313       C  0.33100432  0.47351214  0.89054601    -0.32700
C1314       C  0.35268846  0.48444612  0.92521328     0.36300
H1315       H  0.34962572  0.55196021  0.95064368     0.16700
O1316       O  0.30853199  0.53644503  0.88629626    -0.60200
H1317       H  0.32616345  0.45152732  0.87423570     0.16700
O1318       O  0.36735398  0.46729027  0.93682086    -0.60300
H1319       H  0.38808951  0.47741365  0.92062690     0.43700
H1320       H  0.32334411  0.55188192  0.86425962     0.43700
C1321       C  0.52353116  0.48914731  0.98304337    -0.05400
C1322       C  0.51861987  0.51128601  0.95927862    -0.32800
C1323       C  0.49649790  0.52042754  0.97344841     0.36400
C1324       C  0.47913878  0.50793231  0.01261515    -0.05800
C1325       C  0.48363131  0.48541282  0.03599066    -0.32700
C1326       C  0.50554349  0.47605652  0.02164592     0.36300
H1327       H  0.53180242  0.52142909  0.92931291     0.16700
O1328       O  0.49202384  0.54152921  0.94852322    -0.60200
H1329       H  0.47035341  0.47519587  0.06587486     0.16700
O1330       O  0.50894632  0.45389482  0.04562546    -0.60300
H1331       H  0.52531950  0.46658893  0.06812034     0.43700
H1332       H  0.47334610  0.52781939  0.92948272     0.43700
loop_ 
_geom_bond_atom_site_label_1 
_geom_bond_atom_site_label_2 
_geom_bond_distance 
_geom_bond_site_symmetry_2 
_ccdc_geom_bond_type 
In1           O3   2.242       .  S
In1           O4   2.240       .  S
In1          O12   2.234       .  S
In1           O6   2.254       .  S
In1           O8   2.271       .  S
In1           O9   2.265   1_554  S
In1          O10   2.225       .  S
In1          O13   2.220       .  S
C2            O8   1.265       .  A
C2           O10   1.258       .  A
C2         C1285   1.481       .  S
O3           C11   1.262       .  A
O4           C11   1.265       .  A
C5           O12   1.262       .  A
C5            O6   1.267       .  A
C5         C1324   1.487       .  S
C7            O9   1.264       .  A
C7           O13   1.260   1_556  A
C7         C1309   1.477       .  S
C11        C1297   1.479       .  S
In14         O16   2.237       .  S
In14         O17   2.266       .  S
In14         O25   2.241       .  S
In14         O19   2.262       .  S
In14         O21   2.271       .  S
In14         O22   2.255       .  S
In14         O23   2.240       .  S
In14         O26   2.237       .  S
C15          O21   1.264       .  A
C15          O23   1.259       .  A
C15        C1249   1.483       .  S
O16          C24   1.261   1_556  A
O17          C24   1.264   1_556  A
C18          O25   1.262       .  A
C18          O19   1.266       .  A
C18        C1321   1.490       .  S
C20          O22   1.265       .  A
C20          O26   1.262       .  A
C20        C1261   1.484       .  S
C24        C1273   1.487       .  S
In27         O29   2.235       .  S
In27         O30   2.248       .  S
In27         O38   2.240       .  S
In27         O32   2.256       .  S
In27         O34   2.267       .  S
In27         O35   2.273       .  S
In27         O36   2.228       .  S
In27         O39   2.224       .  S
C28          O34   1.264       .  A
C28          O36   1.259       .  A
C28        C1201   1.483       .  S
O29          C37   1.263       .  A
O30          C37   1.266       .  A
C31          O38   1.263       .  A
C31          O32   1.265       .  A
C31        C1237   1.488       .  S
C33          O35   1.265       .  A
C33          O39   1.259       .  A
C33        C1225   1.482       .  S
C37        C1213   1.483       .  S
In40         O42   2.225       .  S
In40         O43   2.279       .  S
In40         O51   2.250       .  S
In40         O45   2.246       .  S
In40         O47   2.277       .  S
In40         O48   2.258       .  S
In40         O49   2.234       .  S
In40         O52   2.251       .  S
C41          O47   1.262       .  A
C41          O49   1.258       .  A
C41        C1177   1.480       .  S
O42          C50   1.258       .  A
O43          C50   1.265       .  A
C44          O51   1.263       .  A
C44          O45   1.265       .  A
C44        C1240   1.489       .  S
C46          O48   1.265       .  A
C46          O52   1.263       .  A
C46        C1189   1.490       .  S
C50        C1276   1.481       .  S
In53         O55   2.239       .  S
In53         O56   2.269       .  S
In53         O64   2.230       .  S
In53         O58   2.248       .  S
In53         O60   2.260       .  S
In53         O61   2.246       .  S
In53         O62   2.228       .  S
In53         O65   2.241       .  S
C54          O60   1.264       .  A
C54          O62   1.259       .  A
C54        C1129   1.474       .  S
O55          C63   1.259       .  A
O56          C63   1.264       .  A
C57          O64   1.262       .  A
C57          O58   1.266       .  A
C57        C1165   1.483       .  S
C59          O61   1.266       .  A
C59          O65   1.262       .  A
C59        C1141   1.484       .  S
C63        C1153   1.483       .  S
In66         O68   2.229       .  S
In66         O69   2.262       .  S
In66         O77   2.228       .  S
In66         O71   2.256       .  S
In66         O73   2.256       .  S
In66         O74   2.255       .  S
In66         O75   2.210       .  S
In66         O78   2.222       .  S
C67          O73   1.267       .  A
C67          O75   1.261       .  A
C67        C1105   1.475       .  S
O68          C76   1.259       .  A
O69          C76   1.264       .  A
C70          O77   1.260       .  A
C70          O71   1.265       .  A
C70        C1168   1.484       .  S
C72          O74   1.267       .  A
C72          O78   1.262       .  A
C72        C1228   1.480       .  S
C76        C1117   1.471       .  S
In79         O81   2.235       .  S
In79         O82   2.252       .  S
In79         O90   2.228       .  S
In79         O84   2.253       .  S
In79         O86   2.263       .  S
In79         O87   2.260       .  S
In79         O88   2.239       .  S
In79         O91   2.232       .  S
C80          O86   1.264       .  A
C80          O88   1.260       .  A
C80        C1060   1.481       .  S
O81          C89   1.263       .  A
O82          C89   1.266       .  A
C83          O90   1.262       .  A
C83          O84   1.266       .  A
C83        C1093   1.483       .  S
C85          O87   1.264       .  A
C85          O91   1.259       .  A
C85        C1081   1.479       .  S
C89        C1069   1.485       .  S
In92         O94   2.229       .  S
In92         O95   2.262       .  S
In92        O103   2.236       .  S
In92         O97   2.248       .  S
In92         O99   2.275       .  S
In92        O100   2.248       .  S
In92        O101   2.222       .  S
In92        O104   2.250       .  S
C93          O99   1.265       .  A
C93         O101   1.257       .  A
C93        C1033   1.474       .  S
O94         C102   1.262       .  A
O95         C102   1.266       .  A
C96         O103   1.263       .  A
C96          O97   1.266       .  A
C96        C1096   1.484       .  S
C98         O100   1.263       .  A
C98         O104   1.261       .  A
C98        C1045   1.477       .  S
C102       C1156   1.485       .  S
In105       O107   2.227       .  S
In105       O108   2.269       .  S
In105       O116   2.242       .  S
In105       O110   2.252       .  S
In105       O112   2.275       .  S
In105       O113   2.254       .  S
In105       O114   2.240       .  S
In105       O117   2.231       .  S
C106        O112   1.262       .  A
C106        O114   1.258       .  A
C106        C988   1.485       .  S
O107        C115   1.259       .  A
O108        C115   1.263       .  A
C109        O116   1.263       .  A
C109        O110   1.265       .  A
C109       C1021   1.486       .  S
C111        O113   1.265       .  A
C111        O117   1.262       .  A
C111       C1000   1.480       .  S
C115       C1009   1.482       .  S
In118       O120   2.244       .  S
In118       O121   2.244       .  S
In118       O129   2.252       .  S
In118       O123   2.233       .  S
In118       O125   2.269       .  S
In118       O126   2.262       .  S
In118       O127   2.234       .  S
In118       O130   2.230       .  S
C119        O125   1.262       .  A
C119        O127   1.256       .  A
C119        C961   1.472       .  S
O120        C128   1.263       .  A
O121        C128   1.265       .  A
C122        O129   1.264       .  A
C122        O123   1.265       .  A
C122       C1024   1.486       .  S
C124        O126   1.264       .  A
C124        O130   1.258       .  A
C124       C1084   1.480       .  S
C128        C973   1.482       .  S
In131       O133   2.237       .  S
In131       O134   2.239       .  S
In131       O142   2.239       .  S
In131       O136   2.238       .  S
In131       O138   2.267       .  S
In131       O139   2.266       .  S
In131       O140   2.224       .  S
In131       O143   2.213       .  S
C132        O138   1.263       .  A
C132        O140   1.257       .  A
C132        C928   1.477       .  S
O133        C141   1.262       .  A
O134        C141   1.265       .  A
C135        O142   1.263       .  A
C135        O136   1.264       .  A
C135        C949   1.481       .  S
C137        O139   1.264       .  A
C137        O143   1.259       .  A
C137       C1312   1.480       .  S
C141        C937   1.478       .  S
In144       O146   2.223       .  S
In144       O147   2.266       .  S
In144       O155   2.228       .  S
In144       O149   2.233       .  S
In144       O151   2.244       .  S
In144       O152   2.257       .  S
In144       O153   2.227       .  S
In144       O156   2.234       .  S
C145        O151   1.261       .  A
C145        O153   1.259       .  A
C145        C901   1.466       .  S
O146        C154   1.259       .  A
O147        C154   1.266       .  A
C148        O155   1.263       .  A
C148        O149   1.263       .  A
C148        C952   1.478       .  S
C150        O152   1.266       .  A
C150        O156   1.261       .  A
C150        C916   1.480       .  S
C154       C1012   1.482       .  S
In157       O159   2.220       .  S
In157       O160   2.265       .  S
In157       O168   2.233       .  S
In157       O162   2.246       .  S
In157       O164   2.260       .  S
In157       O165   2.247       .  S
In157       O166   2.217       .  S
In157       O169   2.221       .  S
C158        O164   1.267       .  A
C158        O166   1.262       .  A
C158        C865   1.479       .  S
O159        C167   1.260       .  A
O160        C167   1.265       .  A
C161        O168   1.261       .  A
C161        O162   1.265       .  A
C161        C889   1.483       .  S
C163        O165   1.266       .  A
C163        O169   1.261       .  A
C163       C1108   1.469       .  S
C167        C877   1.481       .  S
In170       O172   2.241       .  S
In170       O173   2.245       .  S
In170       O181   2.226       .  S
In170       O175   2.256       .  S
In170       O177   2.264       .  S
In170       O178   2.258       .  S
In170       O179   2.221       .  S
In170       O182   2.217       .  S
C171        O177   1.265       .  A
C171        O179   1.258       .  A
C171        C841   1.474       .  S
O172        C180   1.263       .  A
O173        C180   1.264       .  A
C174        O181   1.262       .  A
C174        O175   1.265       .  A
C174        C892   1.484       .  S
C176        O178   1.264       .  A
C176        O182   1.260       .  A
C176        C853   1.481       .  S
C180       C1252   1.479       .  S
In183       O185   2.237       .  S
In183       O186   2.247       .  S
In183       O194   2.246       .  S
In183       O188   2.249       .  S
In183       O190   2.265       .  S
In183       O191   2.267       .  S
In183       O192   2.240       .  S
In183       O195   2.229       .  S
C184        O190   1.265       .  A
C184        O192   1.259       .  A
C184        C913   1.484       .  S
O185        C193   1.261       .  A
O186        C193   1.266       .  A
C187        O194   1.264       .  A
C187        O188   1.266       .  A
C187        C832   1.489       .  S
C189        O191   1.265       .  A
C189        O195   1.260       .  A
C189        C817   1.483       .  S
C193        C805   1.479       .  S
In196       O198   2.219       .  S
In196       O199   2.274       .  S
In196       O207   2.246       .  S
In196       O201   2.249       .  S
In196       O203   2.279       .  S
In196       O204   2.245       .  S
In196       O205   2.234       .  S
In196       O208   2.238       .  S
C197        O203   1.263       .  A
C197        O205   1.256       .  A
C197       C1072   1.479       .  S
O198        C206   1.259       .  A
O199        C206   1.264       .  A
C200        O207   1.263       .  A
C200        O201   1.265       .  A
C200        C829   1.488       .  S
C202        O204   1.266       .  A
C202        O208   1.262       .  A
C202        C781   1.479       .  S
C206        C793   1.480       .  S
In209       O211   2.232       .  S
In209       O212   2.245       .  S
In209       O220   2.248       .  S
In209       O214   2.241       .  S
In209       O216   2.269       .  S
In209       O217   2.269       .  S
In209       O218   2.233       .  S
In209       O221   2.211       .  S
C210        O216   1.265       .  A
C210        O218   1.259       .  A
C210       C1192   1.482       .  S
O211        C219   1.262       .  A
O212        C219   1.266       .  A
C213        O220   1.263       .  A
C213        O214   1.266       .  A
C213        C769   1.487       .  S
C215        O217   1.266       .  A
C215        O221   1.260       .  A
C215        C856   1.476       .  S
C219        C760   1.481       .  S
In222       O224   2.232       .  S
In222       O225   2.272       .  S
In222       O233   2.236       .  S
In222       O227   2.256       .  S
In222       O229   2.265       .  S
In222       O230   2.260       .  S
In222       O231   2.227       .  S
In222       O234   2.247       .  S
C223        O229   1.263       .  A
C223        O231   1.258       .  A
C223        C940   1.477       .  S
O224        C232   1.260       .  A
O225        C232   1.265       .  A
C226        O233   1.263       .  A
C226        O227   1.265       .  A
C226        C772   1.487       .  S
C228        O230   1.265       .  A
C228        O234   1.261       .  A
C228        C733   1.487       .  S
C232        C745   1.484       .  S
In235       O237   2.251       .  S
In235       O238   2.247       .  S
In235       O246   2.225       .  S
In235       O240   2.261       .  S
In235       O242   2.278       .  S
In235       O243   2.262       .  S
In235       O244   2.233       .  S
In235       O247   2.238       .  S
C236        O242   1.264       .  A
C236        O244   1.258       .  A
C236        C712   1.485       .  S
O237        C245   1.263       .  A
O238        C245   1.264       .  A
C239        O246   1.261       .  A
C239        O240   1.267       .  A
C239        C721   1.487       .  S
C241        O243   1.263       .  A
C241        O247   1.260       .  A
C241        C820   1.484       .  S
C245        C985   1.483       .  S
In248       O250   2.220       .  S
In248       O251   2.265       .  S
In248       O259   2.248       .  S
In248       O253   2.246       .  S
In248       O255   2.278       .  S
In248       O256   2.238       .  S
In248       O257   2.219       .  S
In248       O260   2.232       .  S
C249        O255   1.265       .  A
C249        O257   1.258       .  A
C249        C700   1.478       .  S
O250        C258   1.260       .  A
O251        C258   1.264       .  A
C252        O259   1.262       .  A
C252        O253   1.266       .  A
C252        C724   1.487       .  S
C254        O256   1.265       .  A
C254        O260   1.262       .  A
C254       C1288   1.471       .  S
C258        C748   1.480       .  S
In261       O263   2.223       .  S
In261       O264   2.247       .  S
In261       O272   2.230       .  S
In261       O266   2.250       .  S
In261       O268   2.265       .  S
In261       O269   2.271   1_554  S
In261       O270   2.229       .  S
In261       O273   2.226       .  S
C262        O268   1.263       .  A
C262        O270   1.257       .  A
C262        C661   1.479       .  S
O263        C271   1.261       .  A
O264        C271   1.265       .  A
C265        O272   1.264       .  A
C265        O266   1.265       .  A
C265        C685   1.484       .  S
C267        O269   1.262       .  A
C267        O273   1.258   1_556  A
C267        C673   1.477       .  S
C271       C1132   1.474       .  S
In274       O276   2.211       .  S
In274       O277   2.268       .  S
In274       O285   2.249       .  S
In274       O279   2.246       .  S
In274       O281   2.257       .  S
In274       O282   2.253       .  S
In274       O283   2.238       .  S
In274       O286   2.223       .  S
C275        O281   1.263       .  A
C275        O283   1.260       .  A
C275        C649   1.478       .  S
O276        C284   1.258   1_556  A
O277        C284   1.265   1_556  A
C278        O285   1.262       .  A
C278        O279   1.264       .  A
C278        C688   1.487       .  S
C280        O282   1.266       .  A
C280        O286   1.262       .  A
C280        C964   1.482       .  S
C284        C796   1.479       .  S
In287       O289   2.224       .  S
In287       O290   2.272       .  S
In287       O298   2.251       .  S
In287       O292   2.247       .  S
In287       O294   2.269       .  S
In287       O295   2.255       .  S
In287       O296   2.238       .  S
In287       O299   2.238       .  S
C288        O294   1.263       .  A
C288        O296   1.258       .  A
C288       C1216   1.477       .  S
O289        C297   1.259       .  A
O290        C297   1.265       .  A
C291        O298   1.264       .  A
C291        O292   1.265       .  A
C291        C640   1.489       .  S
C293        O295   1.265       .  A
C293        O299   1.261       .  A
C293        C625   1.478       .  S
C297        C880   1.485       .  S
In300       O302   2.230       .  S
In300       O303   2.256       .  S
In300       O311   2.250       .  S
In300       O305   2.255       .  S
In300       O307   2.272       .  S
In300       O308   2.259       .  S
In300       O309   2.227       .  S
In300       O312   2.222       .  S
C301        O307   1.265       .  A
C301        O309   1.258       .  A
C301       C1048   1.483       .  S
O302        C310   1.261       .  A
O303        C310   1.265       .  A
C304        O311   1.263       .  A
C304        O305   1.265       .  A
C304        C637   1.491       .  S
C306        O308   1.264       .  A
C306        O312   1.260       .  A
C306        C676   1.482       .  S
C310        C613   1.481       .  S
In313       O315   2.237       .  S
In313       O316   2.252       .  S
In313       O324   2.249       .  S
In313       O318   2.255       .  S
In313       O320   2.271       .  S
In313       O321   2.266       .  S
In313       O322   2.235       .  S
In313       O325   2.226       .  S
C314        O320   1.264       .  A
C314        O322   1.258       .  A
C314       C1144   1.481       .  S
O315        C323   1.261       .  A
O316        C323   1.265       .  A
C317        O324   1.263       .  A
C317        O318   1.265       .  A
C317        C601   1.491       .  S
C319        O321   1.265   1_556  A
C319        O325   1.260   1_556  A
C319        C592   1.482       .  S
C323        C697   1.483       .  S
In326       O328   2.224       .  S
In326       O329   2.262       .  S
In326       O337   2.244       .  S
In326       O331   2.256       .  S
In326       O333   2.275       .  S
In326       O334   2.245       .  S
In326       O335   2.226       .  S
In326       O338   2.221       .  S
C327        O333   1.265       .  A
C327        O335   1.258       .  A
C327        C976   1.482       .  S
O328        C336   1.261   1_556  A
O329        C336   1.263   1_556  A
C330        O337   1.263       .  A
C330        O331   1.266       .  A
C330        C604   1.490       .  S
C332        O334   1.265       .  A
C332        O338   1.261       .  A
C332        C844   1.474       .  S
C336        C577   1.473       .  S
In339       O341   2.236       .  S
In339       O342   2.261       .  S
In339       O350   2.233       .  S
In339       O344   2.250       .  S
In339       O346   2.271       .  S
In339       O347   2.254       .  S
In339       O348   2.221       .  S
In339       O351   2.241       .  S
C340        O346   1.266       .  A
C340        O348   1.259       .  A
C340       C1120   1.485       .  S
O341        C349   1.262       .  A
O342        C349   1.266       .  A
C343        O350   1.264       .  A
C343        O344   1.267       .  A
C343        C565   1.487       .  S
C345        O347   1.265       .  A
C345        O351   1.261       .  A
C345        C709   1.479       .  S
C349        C553   1.481       .  S
In352       O354   2.231       .  S
In352       O355   2.246       .  S
In352       O363   2.248       .  S
In352       O357   2.241       .  S
In352       O359   2.269       .  S
In352       O360   2.277       .  S
In352       O361   2.243       .  S
In352       O364   2.223       .  S
C353        O359   1.263       .  A
C353        O361   1.257       .  A
C353       C1264   1.478       .  S
O354        C362   1.263       .  A
O355        C362   1.266       .  A
C356        O363   1.264       .  A
C356        O357   1.265       .  A
C356        C568   1.487       .  S
C358        O360   1.264       .  A
C358        O364   1.257       .  A
C358        C541   1.485       .  S
C362        C652   1.480       .  S
In365       O367   2.213       .  S
In365       O368   2.253       .  S
In365       O376   2.239       .  S
In365       O370   2.256       .  S
In365       O372   2.263       .  S
In365       O373   2.269       .  S
In365       O374   2.231       .  S
In365       O377   2.215       .  S
C366        O372   1.267       .  A
C366        O374   1.261       .  A
C366        C736   1.482       .  S
O367        C375   1.262       .  A
O368        C375   1.267       .  A
C369        O376   1.262       .  A
C369        O370   1.266       .  A
C369        C529   1.488       .  S
C371        O373   1.266       .  A
C371        O377   1.260       .  A
C371        C589   1.478       .  S
C375       C1036   1.476       .  S
In378       O380   2.241       .  S
In378       O381   2.266       .  S
In378       O389   2.235       .  S
In378       O383   2.247       .  S
In378       O385   2.276       .  S
In378       O386   2.255       .  S
In378       O387   2.217       .  S
In378       O390   2.255       .  S
C379        O385   1.264       .  A
C379        O387   1.258       .  A
C379        C808   1.478       .  S
O380        C388   1.261       .  A
O381        C388   1.264       .  A
C382        O389   1.263       .  A
C382        O383   1.266       .  A
C382        C532   1.485       .  S
C384        O386   1.264       .  A
C384        O390   1.261       .  A
C384       C1204   1.486       .  S
C388        C556   1.488       .  S
In391       O393   2.240       .  S
In391       O394   2.240       .  S
In391       O402   2.235       .  S
In391       O396   2.250       .  S
In391       O398   2.262       .  S
In391       O399   2.257       .  S
In391       O400   2.218       .  S
In391       O403   2.228       .  S
C392        O398   1.266       .  A
C392        O400   1.259       .  A
C392        C784   1.478       .  S
O393        C401   1.262       .  A
O394        C401   1.265       .  A
C395        O402   1.262       .  A
C395        O396   1.265       .  A
C395        C517   1.485       .  S
C397        O399   1.264       .  A
C397        O403   1.261       .  A
C397        C544   1.479       .  S
C401       C1180   1.480       .  S
In404       O406   2.225       .  S
In404       O407   2.273       .  S
In404       O415   2.247       .  S
In404       O409   2.234       .  S
In404       O411   2.264       .  S
In404       O412   2.251       .  S
In404       O413   2.228       .  S
In404       O416   2.229       .  S
C405        O411   1.263       .  A
C405        O413   1.258       .  A
C405        C616   1.477       .  S
O406        C414   1.259       .  A
O407        C414   1.265       .  A
C408        O415   1.263       .  A
C408        O409   1.264       .  A
C408        C520   1.484       .  S
C410        O412   1.266       .  A
C410        O416   1.261       .  A
C410        C925   1.480       .  S
C414        C505   1.486       .  S
In417       O419   2.219       .  S
In417       O420   2.250       .  S
In417       O428   2.237       .  S
In417       O422   2.255       .  S
In417       O424   2.258       .  S
In417       O425   2.275       .  S
In417       O426   2.220       .  S
In417       O429   2.225       .  S
C418        O424   1.266       .  A
C418        O426   1.260       .  A
C418        C628   1.480       .  S
O419        C427   1.261       .  A
O420        C427   1.268       .  A
C421        O428   1.263       .  A
C421        O422   1.266       .  A
C421        C496   1.487       .  S
C423        O425   1.267       .  A
C423        O429   1.261       .  A
C423        C484   1.489       .  S
C427        C904   1.478       .  S
In430       O432   2.221       .  S
In430       O433   2.267       .  S
In430       O441   2.241       .  S
In430       O435   2.250       .  S
In430       O437   2.267       .  S
In430       O438   2.259       .  S
In430       O439   2.225       .  S
In430       O442   2.236       .  S
C431        O437   1.263       .  A
C431        O439   1.259       .  A
C431        C757   1.475       .  S
O432        C440   1.259       .  A
O433        C440   1.264       .  A
C434        O441   1.262       .  A
C434        O435   1.263       .  A
C434        C493   1.485       .  S
C436        O438   1.265       .  A
C436        O442   1.261       .  A
C436       C1057   1.482       .  S
C440        C580   1.482       .  S
In443       O445   2.243       .  S
In443       O446   2.239       .  S
In443       O454   2.246       .  S
In443       O448   2.250       .  S
In443       O450   2.273       .  S
In443       O451   2.267       .  S
In443       O452   2.231       .  S
In443       O455   2.242       .  S
C444        O450   1.264       .  A
C444        O452   1.258       .  A
C444        C997   1.479       .  S
O445        C453   1.263       .  A
O446        C453   1.265       .  A
C447        O454   1.263       .  A
C447        O448   1.265       .  A
C447        C469   1.485       .  S
C449        O451   1.263       .  A
C449        O455   1.260       .  A
C449        C481   1.484       .  S
C453        C868   1.476       .  S
In456       O458   2.225       .  S
In456       O459   2.274       .  S
In456       O467   2.242       .  S
In456       O461   2.245       .  S
In456       O463   2.274       .  S
In456       O464   2.257       .  S
In456       O465   2.236       .  S
In456       O468   2.234       .  S
C457        O463   1.261       .  A
C457        O465   1.257       .  A
C457       C1300   1.479       .  S
O458        C466   1.257       .  A
O459        C466   1.263       .  A
C460        O467   1.264       .  A
C460        O461   1.265       .  A
C460        C472   1.482       .  S
C462        O464   1.264       .  A
C462        O468   1.261       .  A
C462        C664   1.479       .  S
C466        C508   1.481       .  S
C469        C470   1.404       .  A
C469        C474   1.412       .  A
C470        C471   1.402       .  A
C470        H475   1.083       .  S
C471        C472   1.409       .  A
C471        O476   1.371       .  S
C472        C473   1.404       .  A
C473        C474   1.403       .  A
C473        H477   1.084       .  S
C474        O478   1.372       .  S
O476        H480   0.992       .  S
O478        H479   0.992       .  S
C481        C482   1.402       .  A
C481        C486   1.411       .  A
C482        C483   1.399   1_565  A
C482        H487   1.084       .  S
C483        C484   1.412       .  A
C483        O488   1.371       .  S
C484        C485   1.407       .  A
C485        C486   1.408   1_545  A
C485        H489   1.083       .  S
C486        O490   1.371       .  S
O488        H492   0.992   1_545  S
O490        H491   0.992       .  S
C493        C494   1.406       .  A
C493        C498   1.410       .  A
C494        C495   1.403       .  A
C494        H499   1.083       .  S
C495        C496   1.411       .  A
C495        O500   1.372       .  S
C496        C497   1.407       .  A
C497        C498   1.401       .  A
C497        H501   1.083       .  S
C498        O502   1.371       .  S
O500        H504   0.992       .  S
O502        H503   0.992       .  S
C505        C506   1.407       .  A
C505        C510   1.412       .  A
C506        C507   1.406       .  A
C506        H511   1.083       .  S
C507        C508   1.410       .  A
C507        O512   1.371       .  S
C508        C509   1.402       .  A
C509        C510   1.397       .  A
C509        H513   1.084       .  S
C510        O514   1.372       .  S
O512        H516   0.992       .  S
O514        H515   0.992       .  S
C517        C518   1.405       .  A
C517        C522   1.412       .  A
C518        C519   1.402       .  A
C518        H523   1.083       .  S
C519        C520   1.412       .  A
C519        O524   1.371       .  S
C520        C521   1.404       .  A
C521        C522   1.399       .  A
C521        H525   1.083       .  S
C522        O526   1.372       .  S
O524        H528   0.992       .  S
O526        H527   0.992       .  S
C529        C530   1.404       .  A
C529        C534   1.413       .  A
C530        C531   1.402       .  A
C530        H535   1.083       .  S
C531        C532   1.412       .  A
C531        O536   1.371       .  S
C532        C533   1.404       .  A
C533        C534   1.402       .  A
C533        H537   1.083       .  S
C534        O538   1.372       .  S
O536        H540   0.992       .  S
O538        H539   0.992       .  S
C541        C542   1.406       .  A
C541        C546   1.412       .  A
C542        C543   1.406       .  A
C542        H547   1.083       .  S
C543        C544   1.410       .  A
C543        O548   1.371       .  S
C544        C545   1.401       .  A
C545        C546   1.396       .  A
C545        H549   1.084       .  S
C546        O550   1.372       .  S
O548        H552   0.992       .  S
O550        H551   0.992       .  S
C553        C554   1.404       .  A
C553        C558   1.409       .  A
C554        C555   1.406   1_545  A
C554        H559   1.084       .  S
C555        C556   1.412       .  A
C555        O560   1.371       .  S
C556        C557   1.407       .  A
C557        C558   1.401   1_565  A
C557        H561   1.083       .  S
C558        O562   1.372       .  S
O560        H564   0.992       .  S
O562        H563   0.992       .  S
C565        C566   1.406       .  A
C565        C570   1.411       .  A
C566        C567   1.400       .  A
C566        H571   1.083       .  S
C567        C568   1.410       .  A
C567        O572   1.371       .  S
C568        C569   1.406       .  A
C569        C570   1.404       .  A
C569        H573   1.083       .  S
C570        O574   1.371       .  S
O572        H576   0.992       .  S
O574        H575   0.992       .  S
C577        C578   1.404       .  A
C577        C582   1.405       .  A
C578        C579   1.406       .  A
C578        H583   1.084       .  S
C579        C580   1.412       .  A
C579        O584   1.371       .  S
C580        C581   1.405       .  A
C581        C582   1.395       .  A
C581        H585   1.083       .  S
C582        O586   1.372       .  S
O584        H588   0.992       .  S
O586        H587   0.992       .  S
C589        C590   1.405       .  A
C589        C594   1.408       .  A
C590        C591   1.407       .  A
C590        H595   1.083       .  S
C591        C592   1.412       .  A
C591        O596   1.371       .  S
C592        C593   1.403       .  A
C593        C594   1.395       .  A
C593        H597   1.084       .  S
C594        O598   1.372       .  S
O596        H600   0.992       .  S
O598        H599   0.992       .  S
C601        C602   1.407   1_554  A
C601        C606   1.411       .  A
C602        C603   1.404       .  A
C602        H607   1.083       .  S
C603        C604   1.411   1_455  A
C603        O608   1.371   1_455  S
C604        C605   1.406   1_556  A
C605        C606   1.403   1_655  A
C605        H609   1.083       .  S
C606        O610   1.371       .  S
O608        H612   0.992       .  S
O610        H611   0.992       .  S
C613        C614   1.404       .  A
C613        C618   1.411       .  A
C614        C615   1.400       .  A
C614        H619   1.084       .  S
C615        C616   1.410       .  A
C615        O620   1.372       .  S
C616        C617   1.402       .  A
C617        C618   1.402       .  A
C617        H621   1.084       .  S
C618        O622   1.372       .  S
O620        H624   0.992       .  S
O622        H623   0.992       .  S
C625        C626   1.405       .  A
C625        C630   1.407       .  A
C626        C627   1.403       .  A
C626        H631   1.084       .  S
C627        C628   1.409   1_566  A
C627        O632   1.371   1_556  S
C628        C629   1.406   1_554  A
C629        C630   1.399   1_545  A
C629        H633   1.084   1_556  S
C630        O634   1.372       .  S
O632        H636   0.992   1_564  S
O634        H635   0.992       .  S
C637        C638   1.406       .  A
C637        C642   1.413       .  A
C638        C639   1.404       .  A
C638        H643   1.083       .  S
C639        C640   1.413       .  A
C639        O644   1.371       .  S
C640        C641   1.405       .  A
C641        C642   1.403       .  A
C641        H645   1.083       .  S
C642        O646   1.371       .  S
O644        H648   0.992       .  S
O646        H647   0.992       .  S
C649        C650   1.404       .  A
C649        C654   1.408       .  A
C650        C651   1.401       .  A
C650        H655   1.084       .  S
C651        C652   1.410       .  A
C651        O656   1.371       .  S
C652        C653   1.406       .  A
C653        C654   1.402       .  A
C653        H657   1.084       .  S
C654        O658   1.372       .  S
O656        H660   0.992       .  S
O658        H659   0.992       .  S
C661        C662   1.406       .  A
C661        C666   1.408       .  A
C662        C663   1.400       .  A
C662        H667   1.084       .  S
C663        C664   1.409       .  A
C663        O668   1.372       .  S
C664        C665   1.405       .  A
C665        C666   1.401       .  A
C665        H669   1.084       .  S
C666        O670   1.371       .  S
O668        H672   0.992       .  S
O670        H671   0.992       .  S
C673        C674   1.404       .  A
C673        C678   1.408       .  A
C674        C675   1.405       .  A
C674        H679   1.083       .  S
C675        C676   1.412       .  A
C675        O680   1.371       .  S
C676        C677   1.404       .  A
C677        C678   1.395       .  A
C677        H681   1.083       .  S
C678        O682   1.372       .  S
O680        H684   0.992       .  S
O682        H683   0.992       .  S
C685        C686   1.404   1_554  A
C685        C690   1.411       .  A
C686        C687   1.399   1_565  A
C686        H691   1.083       .  S
C687        C688   1.410       .  A
C687        O692   1.371       .  S
C688        C689   1.408   1_556  A
C689        C690   1.404   1_545  A
C689        H693   1.083       .  S
C690        O694   1.372       .  S
O692        H696   0.992       .  S
O694        H695   0.992       .  S
C697        C698   1.403       .  A
C697        C702   1.414       .  A
C698        C699   1.398       .  A
C698        H703   1.084       .  S
C699        C700   1.410       .  A
C699        O704   1.372       .  S
C700        C701   1.403       .  A
C701        C702   1.404       .  A
C701        H705   1.083       .  S
C702        O706   1.372       .  S
O704        H708   0.992       .  S
O706        H707   0.992       .  S
C709        C710   1.406       .  A
C709        C714   1.407       .  A
C710        C711   1.406       .  A
C710        H715   1.084       .  S
C711        C712   1.410       .  A
C711        O716   1.371       .  S
C712        C713   1.406       .  A
C713        C714   1.400       .  A
C713        H717   1.084       .  S
C714        O718   1.372       .  S
O716        H720   0.992       .  S
O718        H719   0.992       .  S
C721        C722   1.405       .  A
C721        C726   1.413       .  A
C722        C723   1.405       .  A
C722        H727   1.083       .  S
C723        C724   1.414       .  A
C723        O728   1.372       .  S
C724        C725   1.403       .  A
C725        C726   1.399       .  A
C725        H729   1.083       .  S
C726        O730   1.371       .  S
O728        H732   0.992       .  S
O730        H731   0.992       .  S
C733        C734   1.405       .  A
C733        C738   1.413       .  A
C734        C735   1.403       .  A
C734        H739   1.083       .  S
C735        C736   1.411       .  A
C735        O740   1.372       .  S
C736        C737   1.402       .  A
C737        C738   1.403       .  A
C737        H741   1.084       .  S
C738        O742   1.371       .  S
O740        H744   0.992       .  S
O742        H743   0.992       .  S
C745        C746   1.404       .  A
C745        C750   1.411       .  A
C746        C747   1.397       .  A
C746        H751   1.084       .  S
C747        C748   1.409       .  A
C747        O752   1.372       .  S
C748        C749   1.406       .  A
C749        C750   1.407       .  A
C749        H753   1.083       .  S
C750        O754   1.371       .  S
O752        H756   0.992       .  S
O754        H755   0.992       .  S
C757        C758   1.402       .  A
C757        C762   1.407       .  A
C758        C759   1.398       .  A
C758        H763   1.084       .  S
C759        C760   1.408       .  A
C759        O764   1.371       .  S
C760        C761   1.408       .  A
C761        C762   1.404       .  A
C761        H765   1.084       .  S
C762        O766   1.372       .  S
O764        H768   0.992       .  S
O766        H767   0.992       .  S
C769        C770   1.403       .  A
C769        C774   1.413       .  A
C770        C771   1.399   1_655  A
C770        H775   1.083       .  S
C771        C772   1.412       .  A
C771        O776   1.371       .  S
C772        C773   1.406       .  A
C773        C774   1.405   1_455  A
C773        H777   1.083       .  S
C774        O778   1.372       .  S
O776        H780   0.992       .  S
O778        H779   0.992       .  S
C781        C782   1.402       .  A
C781        C786   1.411       .  A
C782        C783   1.398       .  A
C782        H787   1.084       .  S
C783        C784   1.410       .  A
C783        O788   1.372       .  S
C784        C785   1.403       .  A
C785        C786   1.403       .  A
C785        H789   1.084       .  S
C786        O790   1.372       .  S
O788        H792   0.992       .  S
O790        H791   0.992       .  S
C793        C794   1.402       .  A
C793        C798   1.411       .  A
C794        C795   1.393       .  A
C794        H799   1.084       .  S
C795        C796   1.410       .  A
C795        O800   1.372       .  S
C796        C797   1.406       .  A
C797        C798   1.406       .  A
C797        H801   1.083       .  S
C798        O802   1.371       .  S
O800        H804   0.992       .  S
O802        H803   0.992       .  S
C805        C806   1.408       .  A
C805        C810   1.407       .  A
C806        C807   1.405       .  A
C806        H811   1.084       .  S
C807        C808   1.408   1_544  A
C807        O812   1.371   1_554  S
C808        C809   1.403   1_556  A
C809        C810   1.396   1_565  A
C809        H813   1.084       .  S
C810        O814   1.371       .  S
O812        H816   0.992   1_546  S
O814        H815   0.992       .  S
C817        C818   1.405       .  A
C817        C822   1.411       .  A
C818        C819   1.405       .  A
C818        H823   1.083       .  S
C819        C820   1.411       .  A
C819        O824   1.371       .  S
C820        C821   1.404       .  A
C821        C822   1.399       .  A
C821        H825   1.084       .  S
C822        O826   1.372       .  S
O824        H828   0.992       .  S
O826        H827   0.992       .  S
C829        C830   1.406       .  A
C829        C834   1.411       .  A
C830        C831   1.403       .  A
C830        H835   1.083       .  S
C831        C832   1.411       .  A
C831        O836   1.371       .  S
C832        C833   1.407       .  A
C833        C834   1.403       .  A
C833        H837   1.083       .  S
C834        O838   1.371       .  S
O836        H840   0.992       .  S
O838        H839   0.992       .  S
C841        C842   1.402       .  A
C841        C846   1.410       .  A
C842        C843   1.401       .  A
C842        H847   1.084       .  S
C843        C844   1.410       .  A
C843        O848   1.372       .  S
C844        C845   1.402       .  A
C845        C846   1.398       .  A
C845        H849   1.084       .  S
C846        O850   1.372       .  S
O848        H852   0.992       .  S
O850        H851   0.992       .  S
C853        C854   1.407       .  A
C853        C858   1.411       .  A
C854        C855   1.406       .  A
C854        H859   1.083       .  S
C855        C856   1.408       .  A
C855        O860   1.371       .  S
C856        C857   1.401       .  A
C857        C858   1.393       .  A
C857        H861   1.084       .  S
C858        O862   1.372       .  S
O860        H864   0.992       .  S
O862        H863   0.992       .  S
C865        C866   1.404       .  A
C865        C870   1.410       .  A
C866        C867   1.397       .  A
C866        H871   1.084       .  S
C867        C868   1.407       .  A
C867        O872   1.372       .  S
C868        C869   1.405       .  A
C869        C870   1.405       .  A
C869        H873   1.084       .  S
C870        O874   1.371       .  S
O872        H876   0.992       .  S
O874        H875   0.992       .  S
C877        C878   1.402       .  A
C877        C882   1.410       .  A
C878        C879   1.396       .  A
C878        H883   1.084       .  S
C879        C880   1.411       .  A
C879        O884   1.372       .  S
C880        C881   1.407       .  A
C881        C882   1.407       .  A
C881        H885   1.083       .  S
C882        O886   1.371       .  S
O884        H888   0.992       .  S
O886        H887   0.992       .  S
C889        C890   1.407       .  A
C889        C894   1.408       .  A
C890        C891   1.402       .  A
C890        H895   1.083       .  S
C891        C892   1.410       .  A
C891        O896   1.371       .  S
C892        C893   1.405       .  A
C893        C894   1.399       .  A
C893        H897   1.083       .  S
C894        O898   1.371       .  S
O896        H900   0.992       .  S
O898        H899   0.992       .  S
C901        C902   1.399   1_455  A
C901        C906   1.406   1_556  A
C902        C903   1.399   1_556  A
C902        H907   1.084       .  S
C903        C904   1.413       .  A
C903        O908   1.372   1_554  S
C904        C905   1.404       .  A
C905        C906   1.399   1_655  A
C905        H909   1.083       .  S
C906        O910   1.372       .  S
O908        H912   0.992       .  S
O910        H911   0.992       .  S
C913        C914   1.407   1_554  A
C913        C918   1.409   1_554  A
C914        C915   1.402       .  A
C914        H919   1.084       .  S
C915        C916   1.408       .  A
C915        O920   1.372       .  S
C916        C917   1.405       .  A
C917        C918   1.404       .  A
C917        H921   1.084       .  S
C918        O922   1.371   1_556  S
O920        H924   0.992       .  S
O922        H923   0.992       .  S
C925        C926   1.407       .  A
C925        C930   1.408       .  A
C926        C927   1.402       .  A
C926        H931   1.084       .  S
C927        C928   1.408       .  A
C927        O932   1.371       .  S
C928        C929   1.404       .  A
C929        C930   1.398       .  A
C929        H933   1.084       .  S
C930        O934   1.371       .  S
O932        H936   0.992       .  S
O934        H935   0.992       .  S
C937        C938   1.402       .  A
C937        C942   1.411       .  A
C938        C939   1.397       .  A
C938        H943   1.084       .  S
C939        C940   1.410       .  A
C939        O944   1.372       .  S
C940        C941   1.403       .  A
C941        C942   1.402       .  A
C941        H945   1.084       .  S
C942        O946   1.371       .  S
O944        H948   0.992       .  S
O946        H947   0.992       .  S
C949        C950   1.406       .  A
C949        C954   1.410       .  A
C950        C951   1.400       .  A
C950        H955   1.083       .  S
C951        C952   1.410       .  A
C951        O956   1.372       .  S
C952        C953   1.403       .  A
C953        C954   1.398       .  A
C953        H957   1.083       .  S
C954        O958   1.371       .  S
O956        H960   0.992       .  S
O958        H959   0.992       .  S
C961        C962   1.403       .  A
C961        C966   1.405       .  A
C962        C963   1.402       .  A
C962        H967   1.084       .  S
C963        C964   1.411       .  A
C963        O968   1.372       .  S
C964        C965   1.407       .  A
C965        C966   1.399       .  A
C965        H969   1.083       .  S
C966        O970   1.371       .  S
O968        H972   0.992       .  S
O970        H971   0.991       .  S
C973        C974   1.406       .  A
C973        C978   1.409       .  A
C974        C975   1.405       .  A
C974        H979   1.083       .  S
C975        C976   1.409       .  A
C975        O980   1.371       .  S
C976        C977   1.405       .  A
C977        C978   1.399       .  A
C977        H981   1.084       .  S
C978        O982   1.372       .  S
O980        H984   0.992       .  S
O982        H983   0.992       .  S
C985        C986   1.406       .  A
C985        C990   1.409       .  A
C986        C987   1.406       .  A
C986        H991   1.083       .  S
C987        C988   1.411   1_455  A
C987        O992   1.371       .  S
C988        C989   1.405       .  A
C989        C990   1.400   1_655  A
C989        H993   1.084       .  S
C990        O994   1.371       .  S
O992        H996   0.992   1_455  S
O994        H995   0.992       .  S
C997        C998   1.402   1_565  A
C997       C1002   1.411       .  A
C998        C999   1.403       .  A
C998       H1003   1.083       .  S
C999       C1000   1.411       .  A
C999       O1004   1.372       .  S
C1000      C1001   1.403       .  A
C1001      C1002   1.400   1_545  A
C1001      H1005   1.084       .  S
C1002      O1006   1.372       .  S
O1004      H1008   0.992       .  S
O1006      H1007   0.992       .  S
C1009      C1010   1.403       .  A
C1009      C1014   1.410       .  A
C1010      C1011   1.397   1_655  A
C1010      H1015   1.084       .  S
C1011      C1012   1.411       .  A
C1011      O1016   1.372       .  S
C1012      C1013   1.405       .  A
C1013      C1014   1.405   1_455  A
C1013      H1017   1.083       .  S
C1014      O1018   1.371       .  S
O1016      H1020   0.992   1_455  S
O1018      H1019   0.992       .  S
C1021      C1022   1.406       .  A
C1021      C1026   1.411       .  A
C1022      C1023   1.404       .  A
C1022      H1027   1.083       .  S
C1023      C1024   1.412       .  A
C1023      O1028   1.371       .  S
C1024      C1025   1.404       .  A
C1025      C1026   1.399       .  A
C1025      H1029   1.083       .  S
C1026      O1030   1.371       .  S
O1028      H1032   0.992       .  S
O1030      H1031   0.992       .  S
C1033      C1034   1.401       .  A
C1033      C1038   1.408       .  A
C1034      C1035   1.395       .  A
C1034      H1039   1.084       .  S
C1035      C1036   1.410       .  A
C1035      O1040   1.372       .  S
C1036      C1037   1.405       .  A
C1037      C1038   1.406       .  A
C1037      H1041   1.083       .  S
C1038      O1042   1.371       .  S
O1040      H1044   0.992       .  S
O1042      H1043   0.992       .  S
C1045      C1046   1.400       .  A
C1045      C1050   1.409       .  A
C1046      C1047   1.399       .  A
C1046      H1051   1.084       .  S
C1047      C1048   1.412       .  A
C1047      O1052   1.372       .  S
C1048      C1049   1.406       .  A
C1049      C1050   1.406       .  A
C1049      H1053   1.083       .  S
C1050      O1054   1.372       .  S
O1052      H1056   0.992       .  S
O1054      H1055   0.992       .  S
C1057      C1058   1.404       .  A
C1057      C1062   1.411       .  A
C1058      C1059   1.402       .  A
C1058      H1063   1.084       .  S
C1059      C1060   1.411       .  A
C1059      O1064   1.372       .  S
C1060      C1061   1.403       .  A
C1061      C1062   1.402       .  A
C1061      H1065   1.084       .  S
C1062      O1066   1.371       .  S
O1064      H1068   0.992       .  S
O1066      H1067   0.992       .  S
C1069      C1070   1.408       .  A
C1069      C1074   1.410       .  A
C1070      C1071   1.403       .  A
C1070      H1075   1.083       .  S
C1071      C1072   1.407       .  A
C1071      O1076   1.371       .  S
C1072      C1073   1.404       .  A
C1073      C1074   1.401       .  A
C1073      H1077   1.084       .  S
C1074      O1078   1.372       .  S
O1076      H1080   0.992       .  S
O1078      H1079   0.992       .  S
C1081      C1082   1.404       .  A
C1081      C1086   1.410       .  A
C1082      C1083   1.403       .  A
C1082      H1087   1.083       .  S
C1083      C1084   1.409       .  A
C1083      O1088   1.371       .  S
C1084      C1085   1.405       .  A
C1085      C1086   1.398       .  A
C1085      H1089   1.084       .  S
C1086      O1090   1.372       .  S
O1088      H1092   0.992       .  S
O1090      H1091   0.992       .  S
C1093      C1094   1.404       .  A
C1093      C1098   1.411       .  A
C1094      C1095   1.403   1_545  A
C1094      H1099   1.083       .  S
C1095      C1096   1.412       .  A
C1095      O1100   1.371       .  S
C1096      C1097   1.404       .  A
C1097      C1098   1.400   1_565  A
C1097      H1101   1.083       .  S
C1098      O1102   1.372       .  S
O1100      H1104   0.992       .  S
O1102      H1103   0.992       .  S
C1105      C1106   1.404   1_455  A
C1105      C1110   1.410       .  A
C1106      C1107   1.395       .  A
C1106      H1111   1.084       .  S
C1107      C1108   1.406       .  A
C1107      O1112   1.373       .  S
C1108      C1109   1.403       .  A
C1109      C1110   1.404   1_655  A
C1109      H1113   1.084       .  S
C1110      O1114   1.371       .  S
O1112      H1116   0.992       .  S
O1114      H1115   0.992       .  S
C1117      C1118   1.402       .  A
C1117      C1122   1.404       .  A
C1118      C1119   1.406   1_565  A
C1118      H1123   1.083       .  S
C1119      C1120   1.412       .  A
C1119      O1124   1.371       .  S
C1120      C1121   1.407   1_545  A
C1121      C1122   1.397       .  A
C1121      H1125   1.083       .  S
C1122      O1126   1.372       .  S
O1124      H1128   0.992       .  S
O1126      H1127   0.992       .  S
C1129      C1130   1.402       .  A
C1129      C1134   1.410       .  A
C1130      C1131   1.400       .  A
C1130      H1135   1.084       .  S
C1131      C1132   1.410       .  A
C1131      O1136   1.372       .  S
C1132      C1133   1.402       .  A
C1133      C1134   1.399       .  A
C1133      H1137   1.084       .  S
C1134      O1138   1.372       .  S
O1136      H1140   0.992       .  S
O1138      H1139   0.992       .  S
C1141      C1142   1.403       .  A
C1141      C1146   1.413       .  A
C1142      C1143   1.401       .  A
C1142      H1147   1.083       .  S
C1143      C1144   1.409       .  A
C1143      O1148   1.372       .  S
C1144      C1145   1.403       .  A
C1145      C1146   1.405       .  A
C1145      H1149   1.084       .  S
C1146      O1150   1.372       .  S
O1148      H1152   0.992       .  S
O1150      H1151   0.992       .  S
C1153      C1154   1.405       .  A
C1153      C1158   1.410       .  A
C1154      C1155   1.406       .  A
C1154      H1159   1.083       .  S
C1155      C1156   1.412       .  A
C1155      O1160   1.371       .  S
C1156      C1157   1.405       .  A
C1157      C1158   1.399       .  A
C1157      H1161   1.084       .  S
C1158      O1162   1.372       .  S
O1160      H1164   0.992       .  S
O1162      H1163   0.992       .  S
C1165      C1166   1.403       .  A
C1165      C1170   1.412       .  A
C1166      C1167   1.400       .  A
C1166      H1171   1.083       .  S
C1167      C1168   1.413       .  A
C1167      O1172   1.372       .  S
C1168      C1169   1.404       .  A
C1169      C1170   1.401       .  A
C1169      H1173   1.083       .  S
C1170      O1174   1.372       .  S
O1172      H1176   0.992       .  S
O1174      H1175   0.992       .  S
C1177      C1178   1.403       .  A
C1177      C1182   1.409       .  A
C1178      C1179   1.398       .  A
C1178      H1183   1.084       .  S
C1179      C1180   1.409       .  A
C1179      O1184   1.371       .  S
C1180      C1181   1.407       .  A
C1181      C1182   1.405       .  A
C1181      H1185   1.084       .  S
C1182      O1186   1.371       .  S
O1184      H1188   0.992       .  S
O1186      H1187   0.992       .  S
C1189      C1190   1.409       .  A
C1189      C1194   1.411       .  A
C1190      C1191   1.405       .  A
C1190      H1195   1.083       .  S
C1191      C1192   1.408       .  A
C1191      O1196   1.371       .  S
C1192      C1193   1.404       .  A
C1193      C1194   1.401       .  A
C1193      H1197   1.084       .  S
C1194      O1198   1.371       .  S
O1196      H1200   0.992       .  S
O1198      H1199   0.992       .  S
C1201      C1202   1.405   1_554  A
C1201      C1206   1.410   1_655  A
C1202      C1203   1.400   1_655  A
C1202      H1207   1.084       .  S
C1203      C1204   1.409       .  A
C1203      O1208   1.371       .  S
C1204      C1205   1.408       .  A
C1205      C1206   1.405   1_556  A
C1205      H1209   1.083       .  S
C1206      O1210   1.372       .  S
O1208      H1212   0.992       .  S
O1210      H1211   0.992       .  S
C1213      C1214   1.407       .  A
C1213      C1218   1.410       .  A
C1214      C1215   1.403   1_554  A
C1214      H1219   1.083       .  S
C1215      C1216   1.407       .  A
C1215      O1220   1.371       .  S
C1216      C1217   1.403   1_556  A
C1217      C1218   1.400       .  A
C1217      H1221   1.084       .  S
C1218      O1222   1.371       .  S
O1220      H1224   0.992       .  S
O1222      H1223   0.992       .  S
C1225      C1226   1.404       .  A
C1225      C1230   1.411       .  A
C1226      C1227   1.396   1_655  A
C1226      H1231   1.084       .  S
C1227      C1228   1.410       .  A
C1227      O1232   1.372       .  S
C1228      C1229   1.406       .  A
C1229      C1230   1.405   1_455  A
C1229      H1233   1.083       .  S
C1230      O1234   1.371       .  S
O1232      H1236   0.992       .  S
O1234      H1235   0.992       .  S
C1237      C1238   1.405       .  A
C1237      C1242   1.412       .  A
C1238      C1239   1.401       .  A
C1238      H1243   1.083       .  S
C1239      C1240   1.411       .  A
C1239      O1244   1.371       .  S
C1240      C1241   1.408       .  A
C1241      C1242   1.405       .  A
C1241      H1245   1.083       .  S
C1242      O1246   1.371       .  S
O1244      H1248   0.992       .  S
O1246      H1247   0.992       .  S
C1249      C1250   1.406       .  A
C1249      C1254   1.409       .  A
C1250      C1251   1.401       .  A
C1250      H1255   1.084       .  S
C1251      C1252   1.409       .  A
C1251      O1256   1.372       .  S
C1252      C1253   1.404       .  A
C1253      C1254   1.403       .  A
C1253      H1257   1.084       .  S
C1254      O1258   1.371       .  S
O1256      H1260   0.992       .  S
O1258      H1259   0.992       .  S
C1261      C1262   1.407       .  A
C1261      C1266   1.411       .  A
C1262      C1263   1.402       .  A
C1262      H1267   1.083       .  S
C1263      C1264   1.406       .  A
C1263      O1268   1.371       .  S
C1264      C1265   1.404       .  A
C1265      C1266   1.403       .  A
C1265      H1269   1.084       .  S
C1266      O1270   1.372       .  S
O1268      H1272   0.992       .  S
O1270      H1271   0.992       .  S
C1273      C1274   1.404       .  A
C1273      C1278   1.413       .  A
C1274      C1275   1.397       .  A
C1274      H1279   1.083       .  S
C1275      C1276   1.409       .  A
C1275      O1280   1.372       .  S
C1276      C1277   1.404       .  A
C1277      C1278   1.408       .  A
C1277      H1281   1.083       .  S
C1278      O1282   1.371       .  S
O1280      H1284   0.992       .  S
O1282      H1283   0.992       .  S
C1285      C1286   1.406       .  A
C1285      C1290   1.410       .  A
C1286      C1287   1.398       .  A
C1286      H1291   1.084       .  S
C1287      C1288   1.406       .  A
C1287      O1292   1.372       .  S
C1288      C1289   1.403       .  A
C1289      C1290   1.403       .  A
C1289      H1293   1.084       .  S
C1290      O1294   1.371       .  S
O1292      H1296   0.992       .  S
O1294      H1295   0.992       .  S
C1297      C1298   1.402       .  A
C1297      C1302   1.411       .  A
C1298      C1299   1.398       .  A
C1298      H1303   1.084       .  S
C1299      C1300   1.409       .  A
C1299      O1304   1.372       .  S
C1300      C1301   1.405       .  A
C1301      C1302   1.405       .  A
C1301      H1305   1.084       .  S
C1302      O1306   1.372       .  S
O1304      H1308   0.992       .  S
O1306      H1307   0.992       .  S
C1309      C1310   1.405       .  A
C1309      C1314   1.407       .  A
C1310      C1311   1.406       .  A
C1310      H1315   1.083       .  S
C1311      C1312   1.412       .  A
C1311      O1316   1.371       .  S
C1312      C1313   1.403       .  A
C1313      C1314   1.393       .  A
C1313      H1317   1.084       .  S
C1314      O1318   1.372       .  S
O1316      H1320   0.992       .  S
O1318      H1319   0.992       .  S
C1321      C1322   1.405       .  A
C1321      C1326   1.414   1_556  A
C1322      C1323   1.403       .  A
C1322      H1327   1.083       .  S
C1323      C1324   1.413   1_556  A
C1323      O1328   1.372       .  S
C1324      C1325   1.403       .  A
C1325      C1326   1.403       .  A
C1325      H1329   1.083       .  S
C1326      O1330   1.371       .  S
O1328      H1332   0.992       .  S
O1330      H1331   0.992       .  S
