geometry optimzed in LAMMPS
_audit_creation_date              2020-12-01 
_audit_creation_method            'lammps2cif' 
_symmetry_space_group_name_H-M    'P1' 
_symmetry_Int_Tables_number       1 
_symmetry_cell_setting            triclinic 
loop_ 
_symmetry_equiv_pos_as_xyz 
  x,y,z 
_cell_length_a                    50.80509869 
_cell_length_b                    51.0076438968698 
_cell_length_c                    50.92429939856292 
_cell_angle_alpha                 89.94533459272031 
_cell_angle_beta                  90.01606347130566 
_cell_angle_gamma                 89.96118135239847 
loop_ 
_atom_site_label 
_atom_site_type_symbol 
_atom_site_fract_x 
_atom_site_fract_y 
_atom_site_fract_z 
_atom_site_charge 
O1          O  0.02689335  0.50785507  0.83530027    -0.71700
O2          O  0.04380143  0.46586722  0.89548329    -0.71900
O3          O  0.06961005  0.48275323  0.85296380    -0.71800
O4          O  0.00117210  0.49194615  0.87899136    -0.71800
O5          O  0.98797768  0.45679545  0.85901397    -0.71700
O6          O  0.05743178  0.44812850  0.83142106    -0.71800
O7          O  0.03140006  0.43132101  0.87392509    -0.71700
O8          O  0.01361568  0.47290670  0.81534422    -0.71900
V9          V  0.03503474  0.48650502  0.86521902     1.35200
V10         V  0.02278891  0.45303475  0.84522249     1.35200
C11         C  0.01800455  0.49716699  0.81457990     0.77500
C12         C  0.04016914  0.44125712  0.89476691     0.77600
C13         C  0.07550619  0.46380440  0.83830555     0.77500
C14         C  0.98319508  0.47551756  0.87465612     0.77400
O15         O  0.02335690  0.34206844  0.03085702    -0.71700
O16         O  0.06067565  0.40485857  0.04814537    -0.71900
O17         O  0.03998488  0.38481309  0.00407845    -0.71800
O18         O  0.04308430  0.36299860  0.07450671    -0.71800
O19         O  0.07929469  0.34191149  0.06678942    -0.71700
O20         O  0.07797223  0.36702232  0.99603744    -0.71800
O21         O  0.09737963  0.38423450  0.04171546    -0.71700
O22         O  0.06047459  0.32337483  0.02144689    -0.71900
V23         V  0.04245346  0.37330814  0.03909008     1.35200
V24         V  0.07803128  0.35445308  0.03152200     1.35200
C25         C  0.03584795  0.32158195  0.02428044     0.77500
C26         C  0.08563099  0.40495368  0.04844007     0.77600
C27         C  0.05868227  0.38079438  0.98832191     0.77500
C28         C  0.06150180  0.34870461  0.08282990     0.77400
O29         O  0.82215468  0.50302397  0.99590432    -0.71700
O30         O  0.88717924  0.48928539  0.96103743    -0.71900
O31         O  0.86416525  0.53176753  0.98110659    -0.71800
O32         O  0.84634382  0.46055174  0.97667721    -0.71800
O33         O  0.82603955  0.46734231  0.93973447    -0.71700
O34         O  0.84739326  0.53928647  0.94263974    -0.71800
O35         O  0.86776080  0.49497039  0.92357085    -0.71700
O36         O  0.80410422  0.51157055  0.95824395    -0.71900
V37         V  0.85449463  0.49639390  0.97799109     1.35200
V38         V  0.83653195  0.50326111  0.94181545     1.35200
C39         C  0.80183209  0.50913696  0.98282150     0.77500
C40         C  0.88845429  0.48969120  0.93619943     0.77600
C41         C  0.86046941  0.54735749  0.96225785     0.77500
C42         C  0.83364369  0.45161250  0.95747797     0.77400
O43         O  0.18453403  0.53813735  0.03008256    -0.71700
O44         O  0.12835998  0.55916025  0.07480539    -0.71900
O45         O  0.17044795  0.58251372  0.05392180    -0.71800
O46         O  0.14151740  0.51476829  0.05053914    -0.71800
O47         O  0.16578533  0.50221587  0.08342866    -0.71700
O48         O  0.19197770  0.57214070  0.08918107    -0.71800
O49         O  0.15073957  0.54564941  0.10856165    -0.71700
O50         O  0.20799896  0.52858242  0.06426775    -0.71900
V51         V  0.15672199  0.54832846  0.05294833     1.35200
V52         V  0.17879180  0.53729069  0.08567050     1.35200
C53         C  0.20636964  0.53078680  0.03965155     0.77500
C54         C  0.12996092  0.55561379  0.09934315     0.77600
C55         C  0.18530268  0.58935019  0.07251332     0.77500
C56         C  0.14819047  0.49716284  0.06655667     0.77400
O57         O  0.98893805  0.53586035  0.19409355    -0.71700
O58         O  0.97887892  0.57498080  0.13092256    -0.71900
O59         O  0.01975894  0.55135561  0.15411294    -0.71800
O60         O  0.94778508  0.55899927  0.16989060    -0.71800
O61         O  0.95619752  0.59399425  0.19259353    -0.71700
O62         O  0.02840388  0.58856853  0.17292852    -0.71800
O63         O  0.98541007  0.61100654  0.15249866    -0.71700
O64         O  0.99930821  0.57169012  0.21421589    -0.71900
V65         V  0.98404591  0.55593487  0.16274803     1.35200
V66         V  0.99222771  0.59055953  0.18281371     1.35200
C67         C  0.99610705  0.54715966  0.21511260     0.77500
C68         C  0.97981596  0.59983698  0.13114674     0.77600
C69         C  0.03611939  0.56901948  0.15969028     0.77500
C70         C  0.93953117  0.57812419  0.18313529     0.77400
O71         O  0.99109298  0.69866928  0.98899156    -0.71700
O72         O  0.94765092  0.63915215  0.97336019    -0.71900
O73         O  0.96210154  0.68304687  0.94811260    -0.71800
O74         O  0.97769903  0.65371216  0.01421205    -0.71800
O75         O  0.94385851  0.67295174  0.03145336    -0.71700
O76         O  0.92836369  0.70335319  0.96450817    -0.71800
O77         O  0.91431519  0.65978545  0.99017713    -0.71700
O78         O  0.95716608  0.71776464  0.00621682    -0.71900
V79         V  0.96906301  0.66903211  0.98159031     1.35200
V80         V  0.93666776  0.68815126  0.99782383     1.35200
C81         C  0.98091727  0.71894595  0.99932429     0.77500
C82         C  0.92340628  0.63953827  0.97942378     0.77600
C83         C  0.94254752  0.69786011  0.94478034     0.77500
C84         C  0.96297415  0.65707850  0.03380184     0.77400
O85         O  0.82665933  0.54542715  0.53832388    -0.71700
O86         O  0.88724748  0.56228304  0.57957493    -0.71900
O87         O  0.87033872  0.51973513  0.55411395    -0.71800
O88         O  0.84470451  0.58813625  0.56306683    -0.71800
O89         O  0.82430179  0.57656006  0.59875496    -0.71700
O90         O  0.84934078  0.50658323  0.58887337    -0.71800
O91         O  0.86661179  0.54904716  0.61447533    -0.71700
O92         O  0.80621312  0.53387299  0.57369492    -0.71900
V93         V  0.85673789  0.55358024  0.55939864     1.35200
V94         V  0.83690609  0.54170612  0.59322799     1.35200
C95         C  0.80572028  0.53719639  0.54917255     0.77500
C96         C  0.88722975  0.55814637  0.60413598     0.77600
C97         C  0.86513964  0.50175576  0.57024194     0.77500
C98         C  0.83088610  0.59427399  0.58259415     0.77400
O99         O  0.98936812  0.34429240  0.53975266    -0.71700
O100        O  0.95190876  0.40652602  0.55765600    -0.71900
O101        O  0.96611305  0.36279475  0.58285775    -0.71800
O102        O  0.97571032  0.38906201  0.51441841    -0.71800
O103        O  0.93906167  0.37108441  0.50182868    -0.71700
O104        O  0.92973052  0.34422119  0.57107930    -0.71800
O105        O  0.91550772  0.38810786  0.54566341    -0.71700
O106        O  0.95277998  0.32652821  0.52731062    -0.71900
V107        V  0.97011918  0.37527324  0.54832676     1.35200
V108        V  0.93500351  0.35777254  0.53663088     1.35200
C109        C  0.97714499  0.32426791  0.53145068     0.77500
C110        C  0.92722554  0.40799479  0.55467856     0.77600
C111        C  0.94628252  0.34924851  0.58894266     0.77500
C112        C  0.95873068  0.38543346  0.49674255     0.77400
O113        O  0.99206759  0.50209017  0.33390837    -0.71700
O114        O  0.97839144  0.46818077  0.39917819    -0.71900
O115        O  0.02095181  0.48868239  0.37640567    -0.71800
O116        O  0.94954640  0.48215751  0.35779952    -0.71800
O117        O  0.95746593  0.44447050  0.33946510    -0.71700
O118        O  0.02950697  0.45046161  0.35961366    -0.71800
O119        O  0.98607000  0.43057405  0.38116138    -0.71700
O120        O  0.00081976  0.46437596  0.31636557    -0.71900
V121        V  0.98552132  0.48458644  0.36636283     1.35200
V122        V  0.99344181  0.44827251  0.34930143     1.35200
C123        C  0.99791574  0.48884983  0.31367818     0.77500
C124        C  0.97942006  0.44347939  0.40126238     0.77600
C125        C  0.03697354  0.47022423  0.37266458     0.77500
C126        C  0.94120628  0.46198894  0.34630363     0.77400
O127        O  0.18364922  0.49786756  0.50900625    -0.71700
O128        O  0.12464723  0.48014487  0.46558941    -0.71900
O129        O  0.16736604  0.45510765  0.48319221    -0.71800
O130        O  0.13964007  0.52274147  0.49228271    -0.71800
O131        O  0.15954587  0.53626158  0.45716065    -0.71700
O132        O  0.18964374  0.46842124  0.44939498    -0.71800
O133        O  0.14687744  0.49272152  0.43150864    -0.71700
O134        O  0.20367045  0.51236436  0.47447745    -0.71900
V135        V  0.15428408  0.48932368  0.48697314     1.35200
V136        V  0.17465548  0.50225337  0.45392132     1.35200
C137        C  0.20420133  0.50762305  0.49878082     0.77500
C138        C  0.12597184  0.48337102  0.44090616     0.77600
C139        C  0.18255564  0.44992311  0.46445232     0.77500
C140        C  0.14328762  0.54049612  0.47553150     0.77400
O141        O  0.02856670  0.54488534  0.69764137    -0.71700
O142        O  0.04378324  0.58042894  0.63358594    -0.71900
O143        O  0.07170649  0.56532737  0.67503668    -0.71800
O144        O  0.00057082  0.55934030  0.65522234    -0.71800
O145        O  0.99202708  0.59746538  0.67211153    -0.71700
O146        O  0.06340510  0.60180255  0.69540034    -0.71800
O147        O  0.03692874  0.61750458  0.65296101    -0.71700
O148        O  0.01853264  0.58194926  0.71568988    -0.71900
V149        V  0.03591346  0.56316425  0.66582547     1.35200
V150        V  0.02779316  0.59892869  0.68380026     1.35200
C151        C  0.02105108  0.55742268  0.71780319     0.77500
C152        C  0.04361995  0.60521594  0.63248878     0.77600
C153        C  0.07989317  0.58476172  0.68789064     0.77500
C154        C  0.98438737  0.57765947  0.65919601     0.77400
O155        O  0.02167072  0.70019044  0.49217603    -0.71700
O156        O  0.06075921  0.63763443  0.48024514    -0.71900
O157        O  0.03889645  0.65966584  0.52193556    -0.71800
O158        O  0.04287360  0.67661016  0.45020440    -0.71800
O159        O  0.07851388  0.69911912  0.45698499    -0.71700
O160        O  0.07610734  0.67934315  0.52937920    -0.71800
O161        O  0.09699608  0.65931627  0.48598386    -0.71700
O162        O  0.05799566  0.72059028  0.50070794    -0.71900
V163        V  0.04167381  0.66908432  0.48634337     1.35200
V164        V  0.07662911  0.68937154  0.49317700     1.35200
C165        C  0.03327675  0.72133553  0.49812971     0.77500
C166        C  0.08569701  0.63790730  0.48120144     0.77600
C167        C  0.05755837  0.66478144  0.53735197     0.77500
C168        C  0.06157209  0.68997054  0.44116550     0.77400
O169        O  0.52509244  0.53344078  0.83059143    -0.71700
O170        O  0.54221274  0.57486290  0.89054884    -0.71900
O171        O  0.49907386  0.55028710  0.87386506    -0.71800
O172        O  0.56806553  0.55774005  0.84828502    -0.71800
O173        O  0.55718056  0.59383726  0.82865405    -0.71700
O174        O  0.48652779  0.58447412  0.85160393    -0.71800
O175        O  0.52893742  0.60957301  0.86990835    -0.71700
O176        O  0.51502935  0.56883480  0.80925551    -0.71900
V177        V  0.53325469  0.55467853  0.86033130     1.35200
V178        V  0.52202037  0.58843166  0.84013863     1.35200
C179        C  0.51835240  0.54426293  0.80923045     0.77500
C180        C  0.53850684  0.59940504  0.89044812     0.77600
C181        C  0.48133490  0.56652470  0.86796044     0.77500
C182        C  0.57480737  0.57754907  0.83509597     0.77400
O183        O  0.32132739  0.53901183  0.98924069    -0.71700
O184        O  0.38522851  0.55267790  0.95302341    -0.71900
O185        O  0.34412955  0.58141841  0.96817974    -0.71800
O186        O  0.36305236  0.51028590  0.97451073    -0.71800
O187        O  0.34516424  0.50168194  0.93677201    -0.71700
O188        O  0.32400267  0.57322650  0.93155174    -0.71800
O189        O  0.36568818  0.54538774  0.91603634    -0.71700
O190        O  0.30251381  0.52968310  0.95214401    -0.71900
V191        V  0.35301053  0.54561529  0.97054272     1.35200
V192        V  0.33460360  0.53756925  0.93487193     1.35200
C193        C  0.30084279  0.53250007  0.97670846     0.77500
C194        C  0.38634701  0.55180209  0.92824764     0.77600
C195        C  0.33107597  0.58963237  0.94883476     0.77500
C196        C  0.35837047  0.49406101  0.95643304     0.77400
O197        O  0.49206407  0.34968236  0.98908085    -0.71700
O198        O  0.44430085  0.40496902  0.97182189    -0.71900
O199        O  0.47326883  0.39261275  0.01387805    -0.71800
O200        O  0.46385126  0.36321836  0.94695195    -0.71800
O201        O  0.43211236  0.33889786  0.96150077    -0.71700
O202        O  0.43992614  0.37094970  0.02900422    -0.71800
O203        O  0.41193497  0.38097840  0.98586665    -0.71700
O204        O  0.45950806  0.32744741  0.00525766    -0.71900
V205        V  0.46781166  0.37712476  0.98083179     1.35200
V206        V  0.43657317  0.35488997  0.99519020     1.35200
C207        C  0.48362818  0.32879816  0.99968659     0.77500
C208        C  0.41987279  0.40222481  0.97611687     0.77600
C209        C  0.45739729  0.38842703  0.03234943     0.77500
C210        C  0.44627282  0.34643880  0.94241615     0.77400
O211        O  0.48545693  0.50584792  0.19508593    -0.71700
O212        O  0.47010789  0.47137250  0.13015750    -0.71900
O213        O  0.44185538  0.48847382  0.17081217    -0.71800
O214        O  0.51370405  0.48986937  0.15322764    -0.71800
O215        O  0.51934824  0.45099472  0.16969780    -0.71700
O216        O  0.44710438  0.45161326  0.19147524    -0.71800
O217        O  0.47366215  0.43388607  0.14994960    -0.71700
O218        O  0.49270917  0.46787553  0.21292093    -0.71900
V219        V  0.47797308  0.48820828  0.16276289     1.35200
V220        V  0.48321429  0.45187220  0.18079099     1.35200
C221        C  0.49145032  0.49246881  0.21523463     0.77500
C222        C  0.46862640  0.44652657  0.12933723     0.77600
C223        C  0.43196028  0.46972827  0.18340887     0.77500
C224        C  0.52846854  0.47037563  0.15696425     0.77400
O225        O  0.51887427  0.70022746  0.02855969    -0.71700
O226        O  0.55764978  0.63733982  0.04051773    -0.71900
O227        O  0.54133463  0.67724020  0.06995558    -0.71800
O228        O  0.53436965  0.65908751  0.99875043    -0.71800
O229        O  0.57210335  0.67713553  0.98996964    -0.71700
O230        O  0.57663104  0.69956575  0.06142807    -0.71800
O231        O  0.59403811  0.65858237  0.03400230    -0.71700
O232        O  0.55507750  0.71966500  0.01759359    -0.71900
V233        V  0.53869843  0.66893896  0.03414313     1.35200
V234        V  0.57368918  0.68851197  0.02574869     1.35200
C235        C  0.53059318  0.72107336  0.02183968     0.77500
C236        C  0.58262433  0.63755642  0.04014572     0.77600
C237        C  0.56032453  0.69075314  0.07808982     0.77500
C238        C  0.55261861  0.66347039  0.98261957     0.77400
O239        O  0.67922169  0.49472906  0.02571579    -0.71700
O240        O  0.62005179  0.48174341  0.07064306    -0.71900
O241        O  0.63642683  0.52198846  0.04089927    -0.71800
O242        O  0.66152601  0.45431955  0.05440205    -0.71800
O243        O  0.68517679  0.46866136  0.08689476    -0.71700
O244        O  0.65641394  0.53726164  0.07513541    -0.71800
O245        O  0.64312030  0.49536609  0.10376316    -0.71700
O246        O  0.70009888  0.51100426  0.05889451    -0.71900
V247        V  0.64980228  0.48858260  0.04848520     1.35200
V248        V  0.67093526  0.50287113  0.08045107     1.35200
C249        C  0.70011100  0.50481937  0.03488763     0.77500
C250        C  0.62179136  0.48632163  0.09510061     0.77600
C251        C  0.64025852  0.54073304  0.05639181     0.77500
C252        C  0.67705238  0.44965289  0.07302680     0.77400
O253        O  0.48804826  0.70448527  0.53101730    -0.71700
O254        O  0.44996743  0.64163521  0.54666151    -0.71900
O255        O  0.47243534  0.66183952  0.50335411    -0.71800
O256        O  0.46641463  0.68296559  0.57399611    -0.71800
O257        O  0.43041233  0.70414623  0.56511498    -0.71700
O258        O  0.43472565  0.67965812  0.49415393    -0.71800
O259        O  0.41352430  0.66213861  0.53895419    -0.71700
O260        O  0.45134590  0.72318373  0.52030900    -0.71900
V261        V  0.46858120  0.67316703  0.53843263     1.35200
V262        V  0.43329428  0.69204404  0.52966931     1.35200
C263        C  0.47586331  0.72500843  0.52377407     0.77500
C264        C  0.42495166  0.64152301  0.54634761     0.77600
C265        C  0.45415860  0.66575230  0.48705611     0.77500
C266        C  0.44711103  0.69624692  0.58186759     0.77400
O267        O  0.48496426  0.53333146  0.33884260    -0.71700
O268        O  0.46846616  0.57883174  0.39636740    -0.71900
O269        O  0.44306172  0.56090186  0.35401850    -0.71800
O270        O  0.51042669  0.55035541  0.38239958    -0.71800
O271        O  0.52568973  0.58356379  0.36048496    -0.71700
O272        O  0.45698337  0.59398213  0.33135805    -0.71800
O273        O  0.48311567  0.61170380  0.37365054    -0.71700
O274        O  0.49966396  0.56667412  0.31710016    -0.71900
V275        V  0.47713345  0.55643418  0.36743396     1.35200
V276        V  0.49117753  0.58829967  0.34603367     1.35200
C277        C  0.49400905  0.54257929  0.31754326     0.77500
C278        C  0.47319704  0.60320805  0.39466912     0.77600
C279        C  0.43811524  0.57921025  0.33816193     0.77500
C280        C  0.52929681  0.56549725  0.37723793     0.77400
O281        O  0.68810117  0.53609568  0.50090954    -0.71700
O282        O  0.62427519  0.54910881  0.46405307    -0.71900
O283        O  0.64490665  0.50750105  0.48866223    -0.71800
O284        O  0.66657933  0.57729297  0.47652420    -0.71800
O285        O  0.68430598  0.56556947  0.43972739    -0.71700
O286        O  0.66427237  0.49488620  0.45287915    -0.71800
O287        O  0.64257178  0.53602205  0.42800322    -0.71700
O288        O  0.70693170  0.52503759  0.46434902    -0.71900
V289        V  0.65639464  0.54210860  0.48191177     1.35200
V290        V  0.67424606  0.53047232  0.44699820     1.35200
C291        C  0.70881978  0.52976496  0.48861922     0.77500
C292        C  0.62256809  0.54516618  0.43960737     0.77600
C293        C  0.65001403  0.48942373  0.47250283     0.77500
C294        C  0.67838308  0.58361919  0.45565665     0.77400
O295        O  0.53840825  0.32203982  0.49822635    -0.71700
O296        O  0.57115416  0.38779362  0.48579650    -0.71900
O297        O  0.55966838  0.34616310  0.45664818    -0.71800
O298        O  0.54971817  0.36455283  0.52763607    -0.71800
O299        O  0.58821341  0.34887470  0.53752031    -0.71700
O300        O  0.59718921  0.32830440  0.46595302    -0.71800
O301        O  0.60919173  0.37064344  0.49447897    -0.71700
O302        O  0.57611329  0.30504438  0.50865760    -0.71900
V303        V  0.55545218  0.35467119  0.49235643     1.35200
V304        V  0.59191105  0.33837304  0.50160553     1.35200
C305        C  0.55166239  0.30207100  0.50487214     0.77500
C306        C  0.59578523  0.39048749  0.48784536     0.77600
C307        C  0.58036200  0.33491610  0.44885437     0.77500
C308        C  0.56777194  0.36138637  0.54435568     0.77400
O309        O  0.53086137  0.49489094  0.68917466    -0.71700
O310        O  0.54815679  0.44811966  0.63305649    -0.71900
O311        O  0.50587354  0.47644591  0.64613820    -0.71800
O312        O  0.57313757  0.46754845  0.67455484    -0.71800
O313        O  0.55999631  0.43417417  0.69763477    -0.71700
O314        O  0.49078207  0.44384761  0.66894918    -0.71800
O315        O  0.53333359  0.41561915  0.65623240    -0.71700
O316        O  0.51715583  0.46182662  0.71192674    -0.71900
V317        V  0.53908681  0.47117046  0.66125285     1.35200
V318        V  0.52545841  0.43958248  0.68338139     1.35200
C319        C  0.52204203  0.48608329  0.71073706     0.77500
C320        C  0.54365308  0.42373231  0.63527702     0.77600
C321        C  0.48724842  0.46113049  0.65131128     0.77500
C322        C  0.57846870  0.44904139  0.68993894     0.77400
O323        O  0.32728414  0.50487138  0.53528283    -0.71700
O324        O  0.38985302  0.48381119  0.57097186    -0.71900
O325        O  0.34629525  0.46030612  0.55474221    -0.71800
O326        O  0.37236542  0.52889859  0.55032818    -0.71800
O327        O  0.35428967  0.53905183  0.58760520    -0.71700
O328        O  0.32818553  0.46873541  0.59238418    -0.71800
O329        O  0.37145025  0.49366699  0.60801289    -0.71700
O330        O  0.30933541  0.51388733  0.57277915    -0.71900
V331        V  0.35853108  0.49486605  0.55350611     1.35200
V332        V  0.34104593  0.50383815  0.58941958     1.35200
C333        C  0.30708429  0.51163926  0.54820771     0.77500
C334        C  0.39090499  0.48443228  0.59587056     0.77600
C335        C  0.33382409  0.45236761  0.57451490     0.77500
C336        C  0.36910126  0.54524189  0.56851021     0.77400
O337        O  0.52194827  0.84433988  0.52984143    -0.71700
O338        O  0.55817274  0.90882928  0.54102622    -0.71900
O339        O  0.53601050  0.88533434  0.49979687    -0.71800
O340        O  0.54350173  0.86868891  0.57126505    -0.71800
O341        O  0.57992556  0.84797233  0.56305469    -0.71700
O342        O  0.57384479  0.86771264  0.49096128    -0.71800
O343        O  0.59519617  0.88915856  0.53391516    -0.71700
O344        O  0.55881236  0.82563942  0.51995597    -0.71900
V345        V  0.54059683  0.87633663  0.53525963     1.35200
V346        V  0.57622325  0.85787130  0.52709902     1.35200
C347        C  0.53423160  0.82373660  0.52310721     0.77500
C348        C  0.58300484  0.91005500  0.53947441     0.77600
C349        C  0.55394036  0.88060118  0.48336850     0.77500
C350        C  0.56295171  0.85578481  0.57950006     0.77400
O351        O  0.52517266  0.00776934  0.33184811    -0.71700
O352        O  0.53845539  0.96409477  0.39126064    -0.71900
O353        O  0.56640435  0.98076565  0.35044017    -0.71800
O354        O  0.49709123  0.99166006  0.37401253    -0.71800
O355        O  0.48353214  0.95765346  0.35244449    -0.71700
O356        O  0.55405683  0.94678239  0.32798054    -0.71800
O357        O  0.52537332  0.93033082  0.36876211    -0.71700
O358        O  0.51197752  0.97379989  0.31023973    -0.71900
V359        V  0.53140382  0.98550280  0.36135905     1.35200
V360        V  0.51889150  0.95289805  0.34012624     1.35200
C361        C  0.51700657  0.99797452  0.31044030     0.77500
C362        C  0.53423343  0.93966950  0.38985360     0.77600
C363        C  0.57240288  0.96149806  0.33620347     0.77500
C364        C  0.47871099  0.97594256  0.36861561     0.77400
O365        O  0.49806645  0.18522321  0.49122080    -0.71700
O366        O  0.45157668  0.12922643  0.47091914    -0.71900
O367        O  0.47400146  0.17014343  0.44658339    -0.71800
O368        O  0.47626652  0.14308183  0.51542778    -0.71800
O369        O  0.44338433  0.16777598  0.52681870    -0.71700
O370        O  0.43959061  0.19332778  0.45646699    -0.71800
O371        O  0.41832567  0.15312509  0.48297052    -0.71700
O372        O  0.46401815  0.20883749  0.50052290    -0.71900
V373        V  0.47440650  0.15741317  0.48130859     1.35200
V374        V  0.44204887  0.18036331  0.49150903     1.35200
C375        C  0.48869111  0.20704848  0.49891934     0.77500
C376        C  0.42688141  0.13180878  0.47379516     0.77600
C377        C  0.45608132  0.18568560  0.43947063     0.77500
C378        C  0.46017480  0.15039781  0.53278418     0.77400
O379        O  0.31720072  0.99934486  0.49078707    -0.71700
O380        O  0.38168190  0.98587180  0.45480935    -0.71900
O381        O  0.36006174  0.02781855  0.47736733    -0.71800
O382        O  0.33990804  0.95734424  0.46924830    -0.71800
O383        O  0.31924334  0.96661165  0.43310800    -0.71700
O384        O  0.34343321  0.03761999  0.43931973    -0.71800
O385        O  0.36211640  0.99358986  0.41777218    -0.71700
O386        O  0.29926138  0.01079961  0.45403177    -0.71900
V387        V  0.34925390  0.99285256  0.47237070     1.35200
V388        V  0.33123802  0.00206399  0.43679832     1.35200
C389        C  0.29683739  0.00676781  0.47835613     0.77500
C390        C  0.38287476  0.98758842  0.43000896     0.77600
C391        C  0.35656992  0.04445768  0.45940116     0.77500
C392        C  0.32640831  0.94972908  0.44997472     0.77400
O393        O  0.49204573  0.04588041  0.70384958    -0.71700
O394        O  0.47525531  0.07438722  0.63679977    -0.71900
O395        O  0.51928382  0.05688883  0.65944334    -0.71800
O396        O  0.44827779  0.06288976  0.68010309    -0.71800
O397        O  0.45584913  0.10172338  0.69588822    -0.71700
O398        O  0.52727704  0.09636450  0.67298492    -0.71800
O399        O  0.48222783  0.11337140  0.65193661    -0.71700
O400        O  0.50050493  0.08492396  0.71840591    -0.71900
V401        V  0.48400796  0.06072720  0.67046654     1.35200
V402        V  0.49146093  0.09830597  0.68465761     1.35200
C403        C  0.49827303  0.06062745  0.72284158     0.77500
C404        C  0.47565386  0.09887024  0.63291762     0.77600
C405        C  0.53499518  0.07599858  0.66097557     0.77500
C406        C  0.43980739  0.08340555  0.69094440     0.77400
O407        O  0.68434116  0.05005294  0.52654724    -0.71700
O408        O  0.62625877  0.06560579  0.57213745    -0.71900
O409        O  0.66998071  0.09069703  0.55628627    -0.71800
O410        O  0.63953051  0.02477563  0.54162546    -0.71800
O411        O  0.66137588  0.00720609  0.57377849    -0.71700
O412        O  0.69093790  0.07410276  0.58941179    -0.71800
O413        O  0.64767994  0.04769140  0.60435956    -0.71700
O414        O  0.70548004  0.03367177  0.55957514    -0.71900
V415        V  0.65544855  0.05734625  0.54969204     1.35200
V416        V  0.67595406  0.04092454  0.58109235     1.35200
C417        C  0.70552210  0.04049966  0.53572327     0.77500
C418        C  0.62714855  0.05892694  0.59614086     0.77600
C419        C  0.68542730  0.09387066  0.57540638     0.77500
C420        C  0.64463592  0.00488751  0.55548693     0.77400
O421        O  0.49381809  0.84447258  0.03735778    -0.71700
O422        O  0.45692879  0.90773531  0.05204720    -0.71900
O423        O  0.47208639  0.86617726  0.08014514    -0.71800
O424        O  0.47916050  0.88713447  0.00944939    -0.71800
O425        O  0.44102372  0.87020640  0.00020750    -0.71700
O426        O  0.43616055  0.84517488  0.07068911    -0.71800
O427        O  0.42000012  0.88793802  0.04453889    -0.71700
O428        O  0.45710358  0.82628777  0.02601442    -0.71900
V429        V  0.47484995  0.87590183  0.04450703     1.35200
V430        V  0.43934010  0.85759258  0.03547559     1.35200
C431        C  0.48170029  0.82433473  0.02936694     0.77500
C432        C  0.43208185  0.90865943  0.05069937     0.77600
C433        C  0.45281113  0.85261011  0.08764497     0.77500
C434        C  0.46063522  0.88388392  0.99332529     0.77400
O435        O  0.32968071  0.04431619  0.03434892    -0.71700
O436        O  0.38943388  0.06422045  0.07507293    -0.71900
O437        O  0.37454779  0.02073978  0.04993910    -0.71800
O438        O  0.34540120  0.08784571  0.05882529    -0.71800
O439        O  0.32627519  0.07524150  0.09491461    -0.71700
O440        O  0.35420023  0.00667468  0.08468153    -0.71800
O441        O  0.36974624  0.04986861  0.11004140    -0.71700
O442        O  0.30982075  0.03191885  0.06977838    -0.71900
V443        V  0.35930700  0.05393140  0.05516800     1.35200
V444        V  0.34028521  0.04111395  0.08911732     1.35200
C445        C  0.30909190  0.03541875  0.04528030     0.77500
C446        C  0.38977744  0.06008609  0.09961785     0.77600
C447        C  0.37009073  0.00248125  0.06601576     0.77500
C448        C  0.33173269  0.09321189  0.07868131     0.77400
O449        O  0.48181931  0.02227285  0.84679565    -0.71700
O450        O  0.46724157  0.97837040  0.90631259    -0.71900
O451        O  0.50909070  0.00506500  0.88908596    -0.71800
O452        O  0.43950829  0.99612631  0.86522071    -0.71800
O453        O  0.45140692  0.96188008  0.84293560    -0.71700
O454        O  0.52173399  0.97074301  0.86739362    -0.71800
O455        O  0.47942946  0.94456715  0.88361381    -0.71700
O456        O  0.49414174  0.98781295  0.82534622    -0.71900
V457        V  0.47469646  0.99990400  0.87633354     1.35200
V458        V  0.48646917  0.96704759  0.85508820     1.35200
C459        C  0.49041760  0.01229943  0.82563935     0.77500
C460        C  0.47093427  0.95379361  0.90494321     0.77600
C461        C  0.52696826  0.98880330  0.88359637     0.77500
C462        C  0.43330143  0.97702273  0.85090361     0.77400
O463        O  0.52728904  0.05072237  0.19525683    -0.71700
O464        O  0.54560079  0.09067522  0.13464084    -0.71900
O465        O  0.57068932  0.07322924  0.17702275    -0.71800
O466        O  0.50165280  0.06713427  0.15189079    -0.71800
O467        O  0.49052963  0.10350829  0.17114443    -0.71700
O468        O  0.56042527  0.10861778  0.19829645    -0.71800
O469        O  0.53547268  0.12623350  0.15570036    -0.71700
O470        O  0.51573391  0.08649444  0.21509592    -0.71900
V471        V  0.53595022  0.07111856  0.16510079     1.35200
V472        V  0.52561467  0.10550092  0.18471921     1.35200
C473        C  0.51952875  0.06208598  0.21600334     0.77500
C474        C  0.54425660  0.11546585  0.13522087     0.77600
C475        C  0.57749804  0.09169214  0.19178589     0.77500
C476        C  0.48453820  0.08439379  0.15642508     0.77400
O477        O  0.52915797  0.21076739  0.99575241    -0.71700
O478        O  0.56618309  0.14653443  0.98453517    -0.71900
O479        O  0.54417781  0.16991737  0.02608069    -0.71800
O480        O  0.55058989  0.18653766  0.95443280    -0.71800
O481        O  0.58734860  0.20646092  0.96204181    -0.71700
O482        O  0.58149312  0.18904134  0.03447809    -0.71800
O483        O  0.60299776  0.16666791  0.99250443    -0.71700
O484        O  0.56634014  0.23014536  0.00395702    -0.71900
V485        V  0.54819338  0.17887791  0.99046719     1.35200
V486        V  0.58376717  0.19780812  0.99815920     1.35200
C487        C  0.54176065  0.23159232  0.00078070     0.77500
C488        C  0.59102904  0.14588800  0.98651237     0.77600
C489        C  0.56206346  0.17559647  0.04221783     0.77500
C490        C  0.57003674  0.19900961  0.94572468     0.77400
O491        O  0.68945344  0.00284703  0.00453470    -0.71700
O492        O  0.62444274  0.99377078  0.96874441    -0.71900
O493        O  0.66530835  0.96299432  0.98064774    -0.71800
O494        O  0.64769758  0.03369351  0.99317684    -0.71800
O495        O  0.66426200  0.04478411  0.95547591    -0.71700
O496        O  0.68598816  0.97403402  0.94497281    -0.71800
O497        O  0.64380395  0.00291580  0.93192842    -0.71700
O498        O  0.70749108  0.01592051  0.96831036    -0.71900
V499        V  0.65718901  0.99861008  0.98613443     1.35200
V500        V  0.67515981  0.00928811  0.95092430     1.35200
C501        C  0.70979036  0.01046697  0.99242481     0.77500
C502        C  0.62305937  0.99681016  0.94413012     0.77600
C503        C  0.67850028  0.95639622  0.96077364     0.77500
C504        C  0.65143477  0.05096723  0.97587953     0.77400
O505        O  0.99851571  0.19766198  0.03714006    -0.71700
O506        O  0.95997693  0.13494986  0.05033935    -0.71900
O507        O  0.98390257  0.15569011  0.00834263    -0.71800
O508        O  0.97519091  0.17585233  0.07911262    -0.71800
O509        O  0.93981721  0.19731695  0.06883813    -0.71700
O510        O  0.94670789  0.17383873  0.99799806    -0.71800
O511        O  0.92367571  0.15570511  0.04178127    -0.71700
O512        O  0.96248107  0.21684715  0.02529122    -0.71900
V513        V  0.97876492  0.16648931  0.04343940     1.35200
V514        V  0.94393134  0.18565577  0.03356464     1.35200
C515        C  0.98698655  0.21828420  0.02939142     0.77500
C516        C  0.93506229  0.13497843  0.04899574     0.77600
C517        C  0.96633043  0.15999963  0.99134516     0.77500
C518        C  0.95578386  0.18941740  0.08628531     0.77400
O519        O  0.83370078  0.99526705  0.03036853    -0.71700
O520        O  0.89461528  0.98035479  0.07208553    -0.71900
O521        O  0.85236480  0.95387144  0.05654052    -0.71800
O522        O  0.87748524  0.02180167  0.04481536    -0.71800
O523        O  0.85934311  0.03557115  0.08072288    -0.71700
O524        O  0.82998569  0.96701744  0.09041220    -0.71800
O525        O  0.87294866  0.99247427  0.10676165    -0.71700
O526        O  0.81472651  0.01072466  0.06508548    -0.71900
V527        V  0.86408001  0.98820808  0.05153228     1.35200
V528        V  0.84446695  0.00128370  0.08498081     1.35200
C529        C  0.81337157  0.00501042  0.04103111     0.77500
C530        C  0.89385304  0.98398456  0.09673037     0.77600
C531        C  0.83742104  0.94855927  0.07545015     0.77500
C532        C  0.87488478  0.03962902  0.06161126     0.77400
O533        O  0.03280240  0.99623194  0.19447339    -0.71700
O534        O  0.04568160  0.95472536  0.13367280    -0.71900
O535        O  0.00405852  0.98055148  0.15284307    -0.71800
O536        O  0.07431186  0.97081268  0.17430568    -0.71800
O537        O  0.06271601  0.93725125  0.19797934    -0.71700
O538        O  0.99279917  0.94400290  0.17163896    -0.71800
O539        O  0.03680772  0.91968289  0.15590526    -0.71700
O540        O  0.01884460  0.96157805  0.21472769    -0.71900
V541        V  0.03889323  0.97497643  0.16427905     1.35200
V542        V  0.02788555  0.94135727  0.18477073     1.35200
C543        C  0.02402210  0.98578903  0.21530054     0.77500
C544        C  0.04432496  0.92990640  0.13464666     0.77600
C545        C  0.98680667  0.96334614  0.15724682     0.77500
C546        C  0.08056127  0.95224490  0.18936477     0.77400
O547        O  0.02998514  0.83689205  0.99651393    -0.71700
O548        O  0.06890060  0.89794051  0.97718453    -0.71900
O549        O  0.05016976  0.85589052  0.95218614    -0.71800
O550        O  0.04754293  0.88012232  0.02180998    -0.71800
O551        O  0.08323763  0.85869678  0.03154473    -0.71700
O552        O  0.08775520  0.83696023  0.95984680    -0.71800
O553        O  0.10500487  0.87783690  0.98760421    -0.71700
O554        O  0.06654739  0.81637154  0.00358710    -0.71900
V555        V  0.04981158  0.86726139  0.98724781     1.35200
V556        V  0.08487976  0.84772027  0.99559831     1.35200
C557        C  0.04180535  0.81562361  0.00198591     0.77500
C558        C  0.09378474  0.89821228  0.97906094     0.77600
C559        C  0.06970782  0.84331094  0.94386532     0.77500
C560        C  0.06510159  0.87439923  0.03828185     0.77400
O561        O  0.19276789  0.03750432  0.99312794    -0.71700
O562        O  0.13136359  0.05131129  0.95210263    -0.71900
O563        O  0.15003925  0.00950349  0.97821329    -0.71800
O564        O  0.17298317  0.07897144  0.96763445    -0.71800
O565        O  0.19422182  0.06726246  0.93271093    -0.71700
O566        O  0.17027882  0.99705029  0.94272759    -0.71800
O567        O  0.15264437  0.03921173  0.91711501    -0.71700
O568        O  0.21309500  0.02496304  0.95794748    -0.71900
V569        V  0.16225131  0.04395190  0.97216926     1.35200
V570        V  0.18226766  0.03226123  0.93839406     1.35200
C571        C  0.21385571  0.02987095  0.98218978     0.77500
C572        C  0.13191510  0.04797200  0.92746377     0.77600
C573        C  0.15526204  0.99173744  0.96184606     0.77500
C574        C  0.18676887  0.08532677  0.94805679     0.77400
O575        O  0.98839279  0.03502972  0.83467143    -0.71700
O576        O  0.98032879  0.07573837  0.89722019    -0.71900
O577        O  0.94890975  0.06072120  0.85807114    -0.71800
O578        O  0.01992093  0.04898144  0.87469870    -0.71800
O579        O  0.03140491  0.08472723  0.85459671    -0.71700
O580        O  0.95942108  0.09510870  0.83513136    -0.71800
O581        O  0.99029266  0.11077206  0.87504374    -0.71700
O582        O  0.00058215  0.06992556  0.81385301    -0.71900
V583        V  0.98470137  0.05577599  0.86571725     1.35200
V584        V  0.99527733  0.08944929  0.84501632     1.35200
C585        C  0.99550560  0.04575128  0.81329640     0.77500
C586        C  0.98363774  0.10037013  0.89650591     0.77600
C587        C  0.94195042  0.07964406  0.84384229     0.77500
C588        C  0.03771952  0.06483989  0.86818924     0.77400
O589        O  0.03054079  0.04100123  0.33040433    -0.71700
O590        O  0.04558799  0.08355890  0.39006900    -0.71900
O591        O  0.00373617  0.05663204  0.37359703    -0.71800
O592        O  0.07234168  0.06738608  0.34803622    -0.71800
O593        O  0.05960250  0.10201078  0.32684809    -0.71700
O594        O  0.98970949  0.09081791  0.35227902    -0.71800
O595        O  0.03177618  0.11773946  0.36874331    -0.71700
O596        O  0.01735783  0.07538883  0.30932745    -0.71900
V597        V  0.03767664  0.06274848  0.36002113     1.35200
V598        V  0.02478267  0.09576649  0.33958885     1.35200
C599        C  0.02223239  0.05113435  0.30918911     0.77500
C600        C  0.04138098  0.10801864  0.38944979     0.77600
C601        C  0.98534057  0.07236701  0.36837161     0.77500
C602        C  0.07805715  0.08680110  0.33383809     0.77400
O603        O  0.82829386  0.04321018  0.49473414    -0.71700
O604        O  0.89087080  0.05962455  0.45653284    -0.71900
O605        O  0.84873900  0.08627773  0.47308954    -0.71800
O606        O  0.87149446  0.01621399  0.47880624    -0.71800
O607        O  0.85172046  0.00639983  0.44228906    -0.71700
O608        O  0.82944381  0.07765858  0.43621357    -0.71800
O609        O  0.87111570  0.04982305  0.42025488    -0.71700
O610        O  0.80858497  0.03462111  0.45793574    -0.71900
V611        V  0.85942538  0.05102533  0.47511679     1.35200
V612        V  0.84047802  0.04214950  0.43995145     1.35200
C613        C  0.80733259  0.03738961  0.48257506     0.77500
C614        C  0.89171243  0.05756660  0.43176043     0.77600
C615        C  0.83571916  0.09425677  0.45357454     0.77500
C616        C  0.86661616  0.99967109  0.46109982     0.77400
O617        O  0.99110556  0.84389619  0.48921355    -0.71700
O618        O  0.94945799  0.90464519  0.47463389    -0.71900
O619        O  0.97454648  0.88608521  0.51674165    -0.71800
O620        O  0.96661706  0.86349640  0.44700631    -0.71800
O621        O  0.93137213  0.84201262  0.45755643    -0.71700
O622        O  0.93918023  0.86517001  0.52825429    -0.71800
O623        O  0.91443773  0.88296112  0.48572088    -0.71700
O624        O  0.95575456  0.82311358  0.50038814    -0.71900
V625        V  0.96982690  0.87403591  0.48219897     1.35200
V626        V  0.93595249  0.85358914  0.49281636     1.35200
C627        C  0.98034202  0.82277144  0.49669847     0.77500
C628        C  0.92473275  0.90407114  0.47804208     0.77600
C629        C  0.95758933  0.88084111  0.53401721     0.77500
C630        C  0.94746574  0.84944018  0.44009230     0.77400
O631        O  0.02210243  0.20466338  0.53194775    -0.71700
O632        O  0.05799363  0.13956054  0.53980692    -0.71900
O633        O  0.04411963  0.17857247  0.57194464    -0.71800
O634        O  0.03536380  0.16474026  0.49969954    -0.71800
O635        O  0.07400277  0.18104152  0.49159317    -0.71700
O636        O  0.07968126  0.20062613  0.56366406    -0.71800
O637        O  0.09523042  0.15972105  0.53460876    -0.71700
O638        O  0.05872863  0.22309557  0.52072193    -0.71900
V639        V  0.04053597  0.17233325  0.53561472     1.35200
V640        V  0.07617043  0.19088321  0.52770874     1.35200
C641        C  0.03442431  0.22527698  0.52537518     0.77500
C642        C  0.08291643  0.13876319  0.53921476     0.77600
C643        C  0.06320505  0.19201855  0.58020674     0.77500
C644        C  0.05373846  0.16896618  0.48362813     0.77400
O645        O  0.17694222  0.99294649  0.52332741    -0.71700
O646        O  0.11413575  0.97932569  0.56304653    -0.71900
O647        O  0.13288327  0.02026066  0.53556375    -0.71800
O648        O  0.15709916  0.95192304  0.54978596    -0.71800
O649        O  0.17818598  0.96602237  0.58390687    -0.71700
O650        O  0.14991295  0.03441357  0.57182417    -0.71800
O651        O  0.13471186  0.99175909  0.59816238    -0.71700
O652        O  0.19466160  0.00909354  0.55840757    -0.71900
V653        V  0.14565304  0.98647668  0.54350344     1.35200
V654        V  0.16408989  0.00011052  0.57732106     1.35200
C655        C  0.19691806  0.00283579  0.53462298     0.77500
C656        C  0.11408988  0.98287056  0.58772965     0.77600
C657        C  0.13572336  0.03866965  0.55175118     0.77500
C658        C  0.17150445  0.94702456  0.56932660     0.77400
O659        O  0.98017058  0.00116808  0.69500397    -0.71700
O660        O  0.96435134  0.96616435  0.63086405    -0.71900
O661        O  0.93698910  0.98035068  0.67322099    -0.71800
O662        O  0.00735535  0.98753269  0.65150580    -0.71800
O663        O  0.01710823  0.94965066  0.66851901    -0.71700
O664        O  0.94600830  0.94316358  0.69185650    -0.71800
O665        O  0.97323848  0.92892942  0.64936047    -0.71700
O666        O  0.99012423  0.96373234  0.71265826    -0.71900
V667        V  0.97246161  0.98312842  0.66311961     1.35200
V668        V  0.98152770  0.94717102  0.68044460     1.35200
C669        C  0.98717230  0.98818246  0.71505889     0.77500
C670        C  0.96643366  0.94150216  0.62913601     0.77600
C671        C  0.92922077  0.96049268  0.68564021     0.77500
C672        C  0.02374817  0.96931233  0.65482410     0.77400
O673        O  0.73720426  0.59706209  0.78136119    -0.71700
O674        O  0.71571528  0.65725958  0.81979398    -0.71900
O675        O  0.76042163  0.64180600  0.79785247    -0.71800
O676        O  0.69242469  0.61348286  0.80305084    -0.71800
O677        O  0.70292167  0.59415539  0.83937615    -0.71700
O678        O  0.77183782  0.62297037  0.83435156    -0.71800
O679        O  0.72648993  0.63799606  0.85608865    -0.71700
O680        O  0.74815413  0.57785370  0.81764145    -0.71900
V681        V  0.72678525  0.62692937  0.80116913     1.35200
V682        V  0.73728575  0.60846588  0.83610983     1.35200
C683        C  0.74529847  0.57661872  0.79301462     0.77500
C684        C  0.71733151  0.65798921  0.84455410     0.77600
C685        C  0.77711614  0.63876016  0.81591105     0.77500
C686        C  0.68563466  0.59954790  0.82234052     0.77400
O687        O  0.93231569  0.76499317  0.78578952    -0.71700
O688        O  0.86868766  0.72956437  0.80310508    -0.71900
O689        O  0.91159776  0.74359437  0.82943769    -0.71800
O690        O  0.88809494  0.75140724  0.75937613    -0.71800
O691        O  0.90433605  0.71337366  0.74938834    -0.71700
O692        O  0.93158839  0.70737759  0.81900842    -0.71800
O693        O  0.88779095  0.69251402  0.79457902    -0.71700
O694        O  0.94960380  0.72814522  0.77387119    -0.71900
V695        V  0.90064739  0.74678279  0.79411057     1.35200
V696        V  0.91810783  0.71114786  0.78427931     1.35200
C697        C  0.95217502  0.75248733  0.77730702     0.77500
C698        C  0.86765106  0.70480228  0.80222662     0.77600
C699        C  0.92490313  0.72389356  0.83630955     0.77500
C700        C  0.89056850  0.73306873  0.74290870     0.77400
O701        O  0.57020570  0.79773842  0.74037549    -0.71700
O702        O  0.63038758  0.83958469  0.72433312    -0.71900
O703        O  0.61348308  0.81362212  0.76664734    -0.71800
O704        O  0.58844013  0.82291950  0.69798408    -0.71800
O705        O  0.56737903  0.85796902  0.70953007    -0.71700
O706        O  0.59266239  0.84835926  0.77981485    -0.71800
O707        O  0.60903903  0.87412982  0.73706073    -0.71700
O708        O  0.54947222  0.83282414  0.75253435    -0.71900
V709        V  0.60012587  0.81907500  0.73269567     1.35200
V710        V  0.57990265  0.85257008  0.74459957     1.35200
C711        C  0.54924610  0.80840197  0.74863330     0.77500
C712        C  0.62968683  0.86419100  0.72764079     0.77600
C713        C  0.60858950  0.82980413  0.78466522     0.77500
C714        C  0.57464968  0.84239538  0.69151987     0.77400
O715        O  0.73230507  0.79592418  0.94216852    -0.71700
O716        O  0.69487027  0.81389699  0.88009569    -0.71900
O717        O  0.70994940  0.83973460  0.92323008    -0.71800
O718        O  0.71730317  0.77010212  0.89847576    -0.71800
O719        O  0.68019618  0.75946040  0.91688263    -0.71700
O720        O  0.67365941  0.82897984  0.94269923    -0.71800
O721        O  0.65813762  0.80381391  0.89915066    -0.71700
O722        O  0.69577679  0.78471076  0.96081125    -0.71900
V723        V  0.71294764  0.80464488  0.91141380     1.35200
V724        V  0.67768548  0.79441400  0.92959603     1.35200
C725        C  0.72041988  0.78758576  0.96238488     0.77500
C726        C  0.67011035  0.81181797  0.87889316     0.77600
C727        C  0.69024389  0.84645183  0.93678361     0.77500
C728        C  0.69967358  0.75321315  0.90280537     0.77400
O729        O  0.76201421  0.74814349  0.58652570    -0.71700
O730        O  0.80328366  0.74036142  0.64905756    -0.71900
O731        O  0.77412715  0.77880079  0.62804961    -0.71800
O732        O  0.79026525  0.70972407  0.60852235    -0.71800
O733        O  0.82458963  0.72313436  0.58709775    -0.71700
O734        O  0.80880112  0.79333027  0.60793380    -0.71800
O735        O  0.83756262  0.75410415  0.62766085    -0.71700
O736        O  0.79646714  0.76263762  0.56627429    -0.71900
V737        V  0.78302960  0.74462327  0.61757111     1.35200
V738        V  0.81612783  0.75807923  0.59752840     1.35200
C739        C  0.77247543  0.75617857  0.56539290     0.77500
C740        C  0.82760158  0.74604123  0.64883661     0.77600
C741        C  0.78913872  0.79769011  0.62259596     0.77500
C742        C  0.81028587  0.70437343  0.59500796     0.77400
O743        O  0.77120916  0.96033117  0.74089431    -0.71700
O744        O  0.77528479  0.89538096  0.70467742    -0.71900
O745        O  0.80954899  0.93248530  0.71790353    -0.71800
O746        O  0.73701947  0.92227827  0.72825191    -0.71800
O747        O  0.72857273  0.93976291  0.69022425    -0.71700
O748        O  0.80162608  0.95464261  0.68226572    -0.71800
O749        O  0.76937846  0.91567340  0.66774644    -0.71700
O750        O  0.76074652  0.97981949  0.70455371    -0.71900
V751        V  0.77305415  0.92811658  0.72225931     1.35200
V752        V  0.76518241  0.94725623  0.68692151     1.35200
C753        C  0.76534834  0.98131676  0.72888351     0.77500
C754        C  0.77333970  0.89444678  0.67994083     0.77600
C755        C  0.81798762  0.94498859  0.69835486     0.77500
C756        C  0.72069253  0.92767645  0.71046524     0.77400
O757        O  0.23863178  0.79045166  0.58425033    -0.71700
O758        O  0.19825087  0.80589238  0.64546729    -0.71900
O759        O  0.22536002  0.76431663  0.62830436    -0.71800
O760        O  0.21251378  0.83216851  0.60256861    -0.71800
O761        O  0.17736980  0.81877553  0.58232661    -0.71700
O762        O  0.19019488  0.74970122  0.60920290    -0.71800
O763        O  0.16332576  0.79187691  0.62525823    -0.71700
O764        O  0.20343673  0.77627308  0.56502795    -0.71900
V765        V  0.21807193  0.79784225  0.61467407     1.35200
V766        V  0.18430886  0.78434647  0.59574610     1.35200
C767        C  0.22765539  0.78125352  0.56383578     0.77500
C768        C  0.17373930  0.80134375  0.64555962     0.77600
C769        C  0.20973403  0.74559078  0.62419285     0.77500
C770        C  0.19264025  0.83735888  0.58876708     0.77400
O771        O  0.24244257  0.58106738  0.73911646    -0.71700
O772        O  0.23097362  0.64743026  0.70640811    -0.71900
O773        O  0.20092434  0.60640674  0.71866085    -0.71800
O774        O  0.27255092  0.62300301  0.72731956    -0.71800
O775        O  0.28131955  0.60758383  0.68852096    -0.71700
O776        O  0.20934178  0.58794382  0.68133746    -0.71800
O777        O  0.23815662  0.62969461  0.66840424    -0.71700
O778        O  0.25230839  0.56438885  0.70119977    -0.71900
V779        V  0.23699272  0.61402848  0.72220037     1.35200
V780        V  0.24525435  0.59757203  0.68566476     1.35200
C781        C  0.24860582  0.56119096  0.72551888     0.77500
C782        C  0.23212808  0.64971793  0.68167510     0.77600
C783        C  0.19261106  0.59503022  0.69831284     0.77500
C784        C  0.28875695  0.61965786  0.70892546     0.77400
O785        O  0.27451974  0.75037180  0.94771769    -0.71700
O786        O  0.30758083  0.73884448  0.88133504    -0.71900
O787        O  0.29492927  0.70871501  0.92221079    -0.71800
O788        O  0.28646615  0.78032823  0.90581098    -0.71800
O789        O  0.32516145  0.78891397  0.92171456    -0.71700
O790        O  0.33254742  0.71693714  0.94078549    -0.71800
O791        O  0.34544754  0.74614423  0.89935544    -0.71700
O792        O  0.31262054  0.75991273  0.96433680    -0.71900
V793        V  0.29153536  0.74478668  0.91470287     1.35200
V794        V  0.32813390  0.75288061  0.93135056     1.35200
C795        C  0.28821367  0.75685855  0.96750885     0.77500
C796        C  0.33238624  0.74014891  0.87916678     0.77600
C797        C  0.31542478  0.70047701  0.93341799     0.77500
C798        C  0.30476948  0.79655553  0.90962524     0.77400
O799        O  0.42916436  0.75985769  0.74117022    -0.71700
O800        O  0.37296056  0.71374485  0.72249579    -0.71900
O801        O  0.38627428  0.74021346  0.76569928    -0.71800
O802        O  0.41447456  0.73433863  0.69787777    -0.71800
O803        O  0.43771587  0.70073140  0.70978737    -0.71700
O804        O  0.40962257  0.70716606  0.77917655    -0.71800
O805        O  0.39653426  0.68081821  0.73570322    -0.71700
O806        O  0.45214410  0.72635078  0.75349372    -0.71900
V807        V  0.40122027  0.73645551  0.73218818     1.35200
V808        V  0.42364135  0.70446596  0.74438945     1.35200
C809        C  0.45080704  0.75074532  0.74957781     0.77500
C810        C  0.37542344  0.68922905  0.72579211     0.77600
C811        C  0.39224301  0.72442312  0.78375238     0.77500
C812        C  0.43031608  0.71642989  0.69186661     0.77400
O813        O  0.07312991  0.79289794  0.78358805    -0.71700
O814        O  0.13807918  0.82796795  0.79790377    -0.71900
O815        O  0.09543578  0.81487054  0.82581220    -0.71800
O816        O  0.11671892  0.80509122  0.75574716    -0.71800
O817        O  0.10024515  0.84278983  0.74473571    -0.71700
O818        O  0.07688267  0.85188357  0.81542474    -0.71800
O819        O  0.11967437  0.86500604  0.78802180    -0.71700
O820        O  0.05619757  0.83012316  0.77192940    -0.71900
V821        V  0.10545402  0.81087334  0.79045447     1.35200
V822        V  0.08845721  0.84665135  0.78014192     1.35200
C823        C  0.05321819  0.80594356  0.77609513     0.77500
C824        C  0.13978328  0.85267207  0.79566331     0.77600
C825        C  0.08313244  0.83512759  0.83271955     0.77500
C826        C  0.11340410  0.82261183  0.73858927     0.77400
O827        O  0.27998749  0.95436872  0.78804742    -0.71700
O828        O  0.29166974  0.89264640  0.82876232    -0.71900
O829        O  0.25158661  0.91115986  0.80065784    -0.71800
O830        O  0.32009758  0.93474042  0.81559655    -0.71800
O831        O  0.30585555  0.95569547  0.84991607    -0.71700
O832        O  0.23652030  0.93028708  0.83561009    -0.71800
O833        O  0.27755304  0.91316577  0.86333906    -0.71700
O834        O  0.26455658  0.97382629  0.82246516    -0.71900
V835        V  0.28543980  0.92371293  0.80886228     1.35200
V836        V  0.27133275  0.94297736  0.84210535     1.35200
C837        C  0.27116282  0.97510691  0.79863069     0.77500
C838        C  0.28638356  0.89247670  0.85307333     0.77600
C839        C  0.23275433  0.91512639  0.81627794     0.77500
C840        C  0.32483365  0.94874858  0.83535175     0.77400
O841        O  0.07802008  0.75030010  0.28153609    -0.71700
O842        O  0.13603261  0.70639932  0.30023723    -0.71900
O843        O  0.12151671  0.73171672  0.25691607    -0.71800
O844        O  0.09359562  0.72552034  0.32497157    -0.71800
O845        O  0.07200926  0.69072147  0.31340894    -0.71700
O846        O  0.09897912  0.69796609  0.24386989    -0.71800
O847        O  0.11403364  0.67243570  0.28709221    -0.71700
O848        O  0.05592480  0.71597834  0.27006657    -0.71900
V849        V  0.10678718  0.72788260  0.29056984     1.35200
V850        V  0.08554598  0.69499751  0.27877200     1.35200
C851        C  0.05650567  0.74050577  0.27367863     0.77500
C852        C  0.13503611  0.68186585  0.29630518     0.77600
C853        C  0.11614443  0.71534069  0.23921218     0.77500
C854        C  0.07846473  0.70700104  0.33106677     0.77400
O855        O  0.27603881  0.59033887  0.27907487    -0.71700
O856        O  0.29190631  0.65031178  0.32130400    -0.71900
O857        O  0.31917620  0.61006958  0.30185155    -0.71800
O858        O  0.24834817  0.63175316  0.29750441    -0.71800
O859        O  0.23886313  0.61029934  0.33314354    -0.71700
O860        O  0.31042960  0.58723987  0.33670169    -0.71800
O861        O  0.28305889  0.62755054  0.35622378    -0.71700
O862        O  0.26640732  0.56864602  0.31426143    -0.71900
V863        V  0.28355572  0.62016859  0.30057528     1.35200
V864        V  0.27477357  0.59878899  0.33434541     1.35200
C865        C  0.26926700  0.56883728  0.28961136     0.77500
C866        C  0.29070327  0.64880625  0.34614050     0.77600
C867        C  0.32710244  0.59532155  0.32005326     0.77500
C868        C  0.23173200  0.62557206  0.31480391     0.77400
O869        O  0.24568039  0.75014510  0.08767682    -0.71700
O870        O  0.20685938  0.72976611  0.14821241    -0.71900
O871        O  0.22305280  0.70590628  0.10452305    -0.71800
O872        O  0.22989399  0.77394881  0.13229820    -0.71800
O873        O  0.19299323  0.78563064  0.11444563    -0.71700
O874        O  0.18755357  0.71759510  0.08426350    -0.71800
O875        O  0.17073414  0.74033318  0.12837707    -0.71700
O876        O  0.20958336  0.76286921  0.06911061    -0.71900
V877        V  0.22575689  0.74029860  0.11773797     1.35200
V878        V  0.19097430  0.75149589  0.09930053     1.35200
C879        C  0.23409161  0.75924748  0.06758171     0.77500
C880        C  0.18201647  0.73133058  0.14856754     0.77600
C881        C  0.20383413  0.69975506  0.09011865     0.77500
C882        C  0.21200448  0.79092028  0.12958997     0.77400
O883        O  0.27164597  0.78821261  0.44440267    -0.71700
O884        O  0.30967440  0.80127352  0.38096998    -0.71900
O885        O  0.28633936  0.75916811  0.40239934    -0.71800
O886        O  0.29429333  0.83015851  0.42209968    -0.71800
O887        O  0.33030042  0.82054511  0.44262957    -0.71700
O888        O  0.32349607  0.74934450  0.42115660    -0.71800
O889        O  0.34603557  0.79210426  0.40151758    -0.71700
O890        O  0.30837651  0.77768713  0.46346223    -0.71900
V891        V  0.29110605  0.79440702  0.41287771     1.35200
V892        V  0.32625178  0.78505219  0.43189297     1.35200
C893        C  0.28399021  0.78171161  0.46505105     0.77500
C894        C  0.33451905  0.79904739  0.38076319     0.77600
C895        C  0.30391455  0.74243011  0.40744505     0.77500
C896        C  0.31379958  0.83772192  0.43543442     0.77400
O897        O  0.43728548  0.78041704  0.24262086    -0.71700
O898        O  0.37645870  0.82191645  0.22872667    -0.71900
O899        O  0.41867592  0.80703144  0.20130803    -0.71800
O900        O  0.39415458  0.79486019  0.27018132    -0.71800
O901        O  0.41298194  0.83067017  0.28352086    -0.71700
O902        O  0.44094675  0.84065211  0.21475120    -0.71800
O903        O  0.39808054  0.85658725  0.24055107    -0.71700
O904        O  0.45704304  0.81482312  0.25780073    -0.71900
V905        V  0.40709272  0.80164475  0.23607103     1.35200
V906        V  0.42696820  0.83493832  0.24900696     1.35200
C907        C  0.45787399  0.79074689  0.25201772     0.77500
C908        C  0.37717448  0.84652386  0.23179735     0.77600
C909        C  0.43379811  0.82586682  0.19607072     0.77500
C910        C  0.39820974  0.81124549  0.28824676     0.77400
O911        O  0.24148867  0.95004128  0.25120511    -0.71700
O912        O  0.22658484  0.88541929  0.21705059    -0.71900
O913        O  0.26977864  0.90745751  0.23726036    -0.71800
O914        O  0.19848929  0.92716334  0.23144313    -0.71800
O915        O  0.20691905  0.94663876  0.19446110    -0.71700
O916        O  0.27787874  0.92351301  0.19854056    -0.71800
O917        O  0.23306193  0.90414626  0.17931197    -0.71700
O918        O  0.25154385  0.96725433  0.21363632    -0.71900
V919        V  0.23436893  0.91794369  0.23358295     1.35200
V920        V  0.24230189  0.93519185  0.19728801     1.35200
C921        C  0.24831221  0.97000491  0.23804699     0.77500
C922        C  0.22691425  0.88395350  0.19224762     0.77600
C923        C  0.28557339  0.91087288  0.21848653     0.77500
C924        C  0.19040594  0.93968300  0.21172009     0.77400
O925        O  0.57921991  0.25681106  0.78389150    -0.71700
O926        O  0.64347819  0.22113207  0.79983743    -0.71900
O927        O  0.62235119  0.24248635  0.75681431    -0.71800
O928        O  0.60125590  0.23653930  0.82694427    -0.71800
O929        O  0.58186457  0.19963113  0.81874875    -0.71700
O930        O  0.60514979  0.20465587  0.74760072    -0.71800
O931        O  0.62412706  0.18410589  0.79195994    -0.71700
O932        O  0.56150165  0.21951659  0.77415218    -0.71900
V933        V  0.61116467  0.23856222  0.79161813     1.35200
V934        V  0.59337216  0.20274939  0.78319873     1.35200
C935        C  0.55905003  0.24392803  0.77685170     0.77500
C936        C  0.64444348  0.19626831  0.79902053     0.77600
C937        C  0.61836360  0.22449694  0.74046830     0.77500
C938        C  0.58886499  0.21693666  0.83521177     0.77400
O939        O  0.73948879  0.45693872  0.74978623    -0.71700
O940        O  0.72917809  0.39143678  0.71472772    -0.71900
O941        O  0.77027087  0.41573576  0.73727324    -0.71800
O942        O  0.69839901  0.43161219  0.72787749    -0.71800
O943        O  0.70715792  0.45006222  0.69055334    -0.71700
O944        O  0.77979689  0.43378684  0.69981425    -0.71800
O945        O  0.73842775  0.41026559  0.67768414    -0.71700
O946        O  0.74852049  0.47501924  0.71230882    -0.71900
V947        V  0.73461114  0.42438703  0.73177104     1.35200
V948        V  0.74337023  0.44208569  0.69590479     1.35200
C949        C  0.74518079  0.47736502  0.73673917     0.77500
C950        C  0.73154334  0.38992728  0.68999640     0.77600
C951        C  0.78711063  0.42113732  0.71995035     0.77500
C952        C  0.69024984  0.44226724  0.70706345     0.77400
O953        O  0.75356310  0.25198049  0.59415780    -0.71700
O954        O  0.70951660  0.23396531  0.65258676    -0.71900
O955        O  0.72938736  0.20831582  0.61132348    -0.71800
O956        O  0.73460529  0.27749988  0.63663351    -0.71800
O957        O  0.69943174  0.28870465  0.61501772    -0.71700
O958        O  0.69523966  0.21900659  0.58798478    -0.71800
O959        O  0.67526687  0.24450790  0.62925545    -0.71700
O960        O  0.71868990  0.26354051  0.57272409    -0.71900
V961        V  0.73117178  0.24321851  0.62321880     1.35200
V962        V  0.69791427  0.25375376  0.60160551     1.35200
C963        C  0.74332042  0.26049250  0.57307757     0.77500
C964        C  0.68472496  0.23620613  0.65052051     0.77600
C965        C  0.71133063  0.20166426  0.59576697     0.77500
C966        C  0.71771647  0.29463926  0.63083897     0.77400
O967        O  0.78388537  0.09678033  0.78152048    -0.71700
O968        O  0.80268305  0.15499938  0.82522161    -0.71900
O969        O  0.82669421  0.11141153  0.80859539    -0.71800
O970        O  0.76021271  0.14164536  0.79731261    -0.71800
O971        O  0.74439583  0.12140509  0.83121294    -0.71700
O972        O  0.81220525  0.09089702  0.84297936    -0.71800
O973        O  0.78698107  0.13404075  0.85884179    -0.71700
O974        O  0.76895048  0.07680566  0.81583474    -0.71900
V975        V  0.79300707  0.12573691  0.80373556     1.35200
V976        V  0.77836827  0.10603400  0.83645653     1.35200
C977        C  0.77367368  0.07636520  0.79158419     0.77500
C978        C  0.79746274  0.15436030  0.84959102     0.77600
C979        C  0.83127248  0.09691831  0.82808774     0.77500
C980        C  0.74139986  0.13810658  0.81294781     0.77400
O981        O  0.93483513  0.29017857  0.75149794    -0.71700
O982        O  0.87792840  0.33558876  0.73404808    -0.71900
O983        O  0.91746264  0.31322565  0.70785648    -0.71800
O984        O  0.89445512  0.31189326  0.77789176    -0.71800
O985        O  0.91983069  0.34482371  0.78760715    -0.71700
O986        O  0.94093008  0.34786736  0.71575333    -0.71800
O987        O  0.90199875  0.36921058  0.74436214    -0.71700
O988        O  0.95943572  0.32402404  0.75882251    -0.71900
V989        V  0.90667623  0.31336149  0.74311894     1.35200
V990        V  0.93015023  0.34582170  0.75154804     1.35200
C991        C  0.95729501  0.29946070  0.75705632     0.77500
C992        C  0.88038630  0.36019377  0.73612911     0.77600
C993        C  0.93257356  0.33094734  0.69959439     0.77500
C994        C  0.90279773  0.32809567  0.79454246     0.77400
O995        O  0.78344182  0.28925929  0.95144114    -0.71700
O996        O  0.82085180  0.30634004  0.88927255    -0.71900
O997        O  0.79872868  0.26281882  0.90832970    -0.71800
O998        O  0.80514425  0.33254368  0.93149033    -0.71800
O999        O  0.84062214  0.32255869  0.95282879    -0.71700
O1000       O  0.83674772  0.25314567  0.92524480    -0.71800
O1001       O  0.85762763  0.29880514  0.90934903    -0.71700
O1002       O  0.81982451  0.27718783  0.96991442    -0.71900
V1003       V  0.80270631  0.29741016  0.92055968     1.35200
V1004       V  0.83798971  0.28795758  0.93907102     1.35200
C1005       C  0.79530289  0.28091354  0.97168373     0.77500
C1006       C  0.84571492  0.30658294  0.88898483     0.77600
C1007       C  0.81706753  0.24645761  0.91154565     0.77500
C1008       C  0.82412415  0.33975278  0.94569721     0.77400
O1009       O  0.28168746  0.09251109  0.74794298    -0.71700
O1010       O  0.29158752  0.15463436  0.70725450    -0.71900
O1011       O  0.25136755  0.13363912  0.73372661    -0.71800
O1012       O  0.32184925  0.11432445  0.72206465    -0.71800
O1013       O  0.31020426  0.09110298  0.68843220    -0.71700
O1014       O  0.23963618  0.11532244  0.69721859    -0.71800
O1015       O  0.28252119  0.13265240  0.67187427    -0.71700
O1016       O  0.26741529  0.07273173  0.71314179    -0.71900
V1017       V  0.28632461  0.12334064  0.72712822     1.35200
V1018       V  0.27507464  0.10325064  0.69337734     1.35200
C1019       C  0.27335869  0.07169789  0.73717145     0.77500
C1020       C  0.28905813  0.15398480  0.68250942     0.77600
C1021       C  0.23367858  0.12932395  0.71687885     0.77500
C1022       C  0.32825560  0.09939034  0.70342551     0.77400
O1023       O  0.07084450  0.24748288  0.74100068    -0.71700
O1024       O  0.13452929  0.21103474  0.72711792    -0.71900
O1025       O  0.09209252  0.22413570  0.69892091    -0.71800
O1026       O  0.11370589  0.23455853  0.76885030    -0.71800
O1027       O  0.09581275  0.19775229  0.78041647    -0.71700
O1028       O  0.07298817  0.18780864  0.70974517    -0.71800
O1029       O  0.11571655  0.17432607  0.73772177    -0.71700
O1030       O  0.05237472  0.21089171  0.75252623    -0.71900
V1031       V  0.10234145  0.22859862  0.73418473     1.35200
V1032       V  0.08447567  0.19341276  0.74492532     1.35200
C1033       C  0.05065840  0.23532620  0.74893903     0.77500
C1034       C  0.13607904  0.18652991  0.73047742     0.77600
C1035       C  0.07920547  0.20412565  0.69207699     0.77500
C1036       C  0.10950960  0.21760045  0.78640778     0.77400
O1037       O  0.27627408  0.29208856  0.57837119    -0.71700
O1038       O  0.31174389  0.30677631  0.64241233    -0.71900
O1039       O  0.29893455  0.33397471  0.59972583    -0.71800
O1040       O  0.28819337  0.26477656  0.62188253    -0.71800
O1041       O  0.32587184  0.25290085  0.60610947    -0.71700
O1042       O  0.33523808  0.32296989  0.58052487    -0.71800
O1043       O  0.34886537  0.29675458  0.62398211    -0.71700
O1044       O  0.31299321  0.27909574  0.56123555    -0.71900
V1045       V  0.29448378  0.29906716  0.61017815     1.35200
V1046       V  0.33002480  0.28803236  0.59316005     1.35200
C1047       C  0.28874202  0.28366238  0.55854086     0.77500
C1048       C  0.33650402  0.30455945  0.64398746     0.77600
C1049       C  0.31889705  0.34071149  0.58675748     0.77500
C1050       C  0.30549629  0.24724489  0.61936357     0.77400
O1051       O  0.43893898  0.28691023  0.78185446    -0.71700
O1052       O  0.37492831  0.32296310  0.79663949    -0.71900
O1053       O  0.39577846  0.30090026  0.75422328    -0.71800
O1054       O  0.41699955  0.30826238  0.82447482    -0.71800
O1055       O  0.43759718  0.34432187  0.81496653    -0.71700
O1056       O  0.41259348  0.33872154  0.74428276    -0.71800
O1057       O  0.39460720  0.35993844  0.78844128    -0.71700
O1058       O  0.45678607  0.32361896  0.77034278    -0.71900
V1059       V  0.40714647  0.30541010  0.78902912     1.35200
V1060       V  0.42519947  0.34089641  0.77965397     1.35200
C1061       C  0.45912669  0.29931032  0.77404321     0.77500
C1062       C  0.37407600  0.34770080  0.79488476     0.77600
C1063       C  0.39862537  0.31918970  0.73781025     0.77500
C1064       C  0.43062654  0.32746182  0.83191537     0.77400
O1065       O  0.23345950  0.44264352  0.77312913    -0.71700
O1066       O  0.21488255  0.38411329  0.81652793    -0.71900
O1067       O  0.19026837  0.42744445  0.79954787    -0.71800
O1068       O  0.25789535  0.39861305  0.78956259    -0.71800
O1069       O  0.27252634  0.41999875  0.82337183    -0.71700
O1070       O  0.20393052  0.44761636  0.83430534    -0.71800
O1071       O  0.23019465  0.40503101  0.85040641    -0.71700
O1072       O  0.24656425  0.46337915  0.80775719    -0.71900
V1073       V  0.22443333  0.41362083  0.79528470     1.35200
V1074       V  0.23803757  0.43366253  0.82823393     1.35200
C1075       C  0.24292567  0.46333078  0.78328500     0.77500
C1076       C  0.21972241  0.38474810  0.84094623     0.77600
C1077       C  0.18522186  0.44194637  0.81896234     0.77500
C1078       C  0.27665994  0.40406942  0.80478351     0.77400
O1079       O  0.23987818  0.24607953  0.93792670    -0.71700
O1080       O  0.19715731  0.23358093  0.87714449    -0.71900
O1081       O  0.22261880  0.27503680  0.89699260    -0.71800
O1082       O  0.21536032  0.20454977  0.91680483    -0.71800
O1083       O  0.18055895  0.21383508  0.93972123    -0.71700
O1084       O  0.18751144  0.28578777  0.91875207    -0.71800
O1085       O  0.16241672  0.24341643  0.90003320    -0.71700
O1086       O  0.20476623  0.25629952  0.95963109    -0.71900
V1087       V  0.21809781  0.24008398  0.90770241     1.35200
V1088       V  0.18451619  0.24968575  0.92917968     1.35200
C1089       C  0.22936606  0.25315811  0.95944249     0.77500
C1090       C  0.17238973  0.23636007  0.87854241     0.77600
C1091       C  0.20646531  0.29243334  0.90391627     0.77500
C1092       C  0.19678618  0.19692891  0.93121769     0.77400
O1093       O  0.27663170  0.25375077  0.07790830    -0.71700
O1094       O  0.31206679  0.24260356  0.14305639    -0.71900
O1095       O  0.29125508  0.28444319  0.11888269    -0.71800
O1096       O  0.29714568  0.21228133  0.10297358    -0.71800
O1097       O  0.33495922  0.21942263  0.08438476    -0.71700
O1098       O  0.32877029  0.29212848  0.09993100    -0.71800
O1099       O  0.34934403  0.25028441  0.12401843    -0.71700
O1100       O  0.31420439  0.26059231  0.05888200    -0.71900
V1101       V  0.29493737  0.24855474  0.11024288     1.35200
V1102       V  0.33100176  0.25560793  0.09201852     1.35200
C1103       C  0.28954147  0.25777662  0.05699441     0.77500
C1104       C  0.33688300  0.24416135  0.14462750     0.77600
C1105       C  0.30952860  0.30028851  0.11342745     0.77500
C1106       C  0.31751683  0.20346410  0.09195614     0.77400
O1107       O  0.27415384  0.44781999  0.24255237    -0.71700
O1108       O  0.29253167  0.39162599  0.19621988    -0.71900
O1109       O  0.31690486  0.43347650  0.21627029    -0.71800
O1110       O  0.24942004  0.40439622  0.22340815    -0.71800
O1111       O  0.23562987  0.42609766  0.18942150    -0.71700
O1112       O  0.30377551  0.45753897  0.18369766    -0.71800
O1113       O  0.27985452  0.41530845  0.16315638    -0.71700
O1114       O  0.25945613  0.46959292  0.20912520    -0.71900
V1115       V  0.28282312  0.41976758  0.21903467     1.35200
V1116       V  0.26981268  0.44173826  0.18704942     1.35200
C1117       C  0.26505296  0.46907300  0.23327302     0.77500
C1118       C  0.28934649  0.39413401  0.17160822     0.77600
C1119       C  0.32202098  0.45055815  0.19925198     0.77500
C1120       C  0.23151599  0.40885177  0.20691952     0.77400
O1121       O  0.24024655  0.08983297  0.28135521    -0.71700
O1122       O  0.22777634  0.15396089  0.31734903    -0.71900
O1123       O  0.26982779  0.13101763  0.29588422    -0.71800
O1124       O  0.19817390  0.11385457  0.30197897    -0.71800
O1125       O  0.20591600  0.09277346  0.33827262    -0.71700
O1126       O  0.27804131  0.11389425  0.33405128    -0.71800
O1127       O  0.23400317  0.13419529  0.35449019    -0.71700
O1128       O  0.25003297  0.07143681  0.31833887    -0.71900
V1129       V  0.23423806  0.12172451  0.29983394     1.35200
V1130       V  0.24190406  0.10330832  0.33555928     1.35200
C1131       C  0.24708242  0.06940362  0.29384486     0.77500
C1132       C  0.22858990  0.15498261  0.34216059     0.77600
C1133       C  0.28591439  0.12673417  0.31423033     0.77500
C1134       C  0.18970885  0.10065370  0.32105208     0.77400
O1135       O  0.43885446  0.25416036  0.28493365    -0.71700
O1136       O  0.37868906  0.21101730  0.29940746    -0.71900
O1137       O  0.42177233  0.22577201  0.32561111    -0.71800
O1138       O  0.39419012  0.24018310  0.25842231    -0.71800
O1139       O  0.41398066  0.20599822  0.24249596    -0.71700
O1140       O  0.44325691  0.19246827  0.31032720    -0.71800
O1141       O  0.40008920  0.17742747  0.28427741    -0.71700
O1142       O  0.45836169  0.22031530  0.26833545    -0.71900
V1143       V  0.40879740  0.23224662  0.29164046     1.35200
V1144       V  0.42858251  0.19979984  0.27656540     1.35200
C1145       C  0.45958397  0.24392820  0.27540157     0.77500
C1146       C  0.37946867  0.18666758  0.29435120     0.77600
C1147       C  0.43687001  0.20660140  0.32976373     0.77500
C1148       C  0.39823977  0.22502783  0.23927995     0.77400
O1149       O  0.07166499  0.29210359  0.24619463    -0.71700
O1150       O  0.13307358  0.32836026  0.22329926    -0.71900
O1151       O  0.11732011  0.30716436  0.26877784    -0.71800
O1152       O  0.08829975  0.31253500  0.20098734    -0.71800
O1153       O  0.07046851  0.34975476  0.21088373    -0.71700
O1154       O  0.09954308  0.34431265  0.27983629    -0.71800
O1155       O  0.11489042  0.36518819  0.23418255    -0.71700
O1156       O  0.05373327  0.32935659  0.25637754    -0.71900
V1157       V  0.10221204  0.31072717  0.23514552     1.35200
V1158       V  0.08491613  0.34638067  0.24526546     1.35200
C1159       C  0.05176971  0.30479124  0.25409513     0.77500
C1160       C  0.13426426  0.35316704  0.22456733     0.77600
C1161       C  0.11428023  0.32506815  0.28552757     0.77500
C1162       C  0.07503122  0.33220387  0.19392245     0.77400
O1163       O  0.24141025  0.29493832  0.44029335    -0.71700
O1164       O  0.20081653  0.30939178  0.37845968    -0.71900
O1165       O  0.21622788  0.33658285  0.42071911    -0.71800
O1166       O  0.22716031  0.26793009  0.39710172    -0.71800
O1167       O  0.19102757  0.25494537  0.41578295    -0.71700
O1168       O  0.18151447  0.32437809  0.44241353    -0.71800
O1169       O  0.16565381  0.29803371  0.39971960    -0.71700
O1170       O  0.20603241  0.28092638  0.45924992    -0.71900
V1171       V  0.22077923  0.30190418  0.40957156     1.35200
V1172       V  0.18677442  0.28977891  0.42897511     1.35200
C1173       C  0.23022526  0.28586439  0.46068027     0.77500
C1174       C  0.17605323  0.30595803  0.37874863     0.77600
C1175       C  0.19711462  0.34238768  0.43521257     0.77500
C1176       C  0.21067046  0.25000427  0.40127716     0.77400
O1177       O  0.74469949  0.29332973  0.08822357    -0.71700
O1178       O  0.70295612  0.31003975  0.14845911    -0.71900
O1179       O  0.73068104  0.26820507  0.13291193    -0.71800
O1180       O  0.71779040  0.33530735  0.10522035    -0.71800
O1181       O  0.68305783  0.32104919  0.08509435    -0.71700
O1182       O  0.69576850  0.25295952  0.11365564    -0.71800
O1183       O  0.66842937  0.29544062  0.12826316    -0.71700
O1184       O  0.70977718  0.27824579  0.06921352    -0.71900
V1185       V  0.72345243  0.30130564  0.11825500     1.35200
V1186       V  0.69002594  0.28710624  0.09931696     1.35200
C1187       C  0.73394159  0.28356537  0.06795196     0.77500
C1188       C  0.67830220  0.30619617  0.14824485     0.77600
C1189       C  0.71505506  0.24944724  0.12904227     0.77500
C1190       C  0.69775151  0.34007804  0.09147636     0.77400
O1191       O  0.57921169  0.29007982  0.28533379    -0.71700
O1192       O  0.64430560  0.32576594  0.29630693    -0.71900
O1193       O  0.60500661  0.30979944  0.32695052    -0.71800
O1194       O  0.61971685  0.30520839  0.25478151    -0.71800
O1195       O  0.60250471  0.34367888  0.24817009    -0.71700
O1196       O  0.58340485  0.34602432  0.32066081    -0.71800
O1197       O  0.62410716  0.36284126  0.29185989    -0.71700
O1198       O  0.56044424  0.32716355  0.27681014    -0.71900
V1199       V  0.61157531  0.30837652  0.29064962     1.35200
V1200       V  0.59283139  0.34417516  0.28443728     1.35200
C1201       C  0.55846849  0.30261661  0.27923673     0.77500
C1202       C  0.64524920  0.35057823  0.29630781     0.77600
C1203       C  0.59203940  0.32864792  0.33624262     0.77500
C1204       C  0.61510672  0.32407405  0.23952170     0.77400
O1205       O  0.73511780  0.08890184  0.25208710    -0.71700
O1206       O  0.72799242  0.15475580  0.21665140    -0.71900
O1207       O  0.69572261  0.11570930  0.22946167    -0.71800
O1208       O  0.76727160  0.12934717  0.24018557    -0.71800
O1209       O  0.77709967  0.11228640  0.20246921    -0.71700
O1210       O  0.70461228  0.09539342  0.19299919    -0.71800
O1211       O  0.73594501  0.13517835  0.17979023    -0.71700
O1212       O  0.74597894  0.07089874  0.21515011    -0.71900
V1213       V  0.73179330  0.12168870  0.23396699     1.35200
V1214       V  0.74079575  0.10362601  0.19838764     1.35200
C1215       C  0.74130619  0.06840349  0.23932626     0.77500
C1216       C  0.73045803  0.15601697  0.19190565     0.77600
C1217       C  0.68785848  0.10407269  0.20922977     0.77500
C1218       C  0.78415456  0.12486960  0.22273173     0.77400
O1219       O  0.93078970  0.25879488  0.24369263    -0.71700
O1220       O  0.87421168  0.21284369  0.22660567    -0.71900
O1221       O  0.88836172  0.23975191  0.26926417    -0.71800
O1222       O  0.91561808  0.23219373  0.20084660    -0.71800
O1223       O  0.93796457  0.19821062  0.21297291    -0.71700
O1224       O  0.91274575  0.20744860  0.28294034    -0.71800
O1225       O  0.89739439  0.18000749  0.24106660    -0.71700
O1226       O  0.95425630  0.22531398  0.25520319    -0.71900
V1227       V  0.90276708  0.23532868  0.23539990     1.35200
V1228       V  0.92522725  0.20343209  0.24782540     1.35200
C1229       C  0.95258025  0.24977175  0.25172733     0.77500
C1230       C  0.87628231  0.18858062  0.23135888     0.77600
C1231       C  0.89545088  0.22471200  0.28758879     0.77500
C1232       C  0.93064979  0.21356362  0.19474770     0.77400
O1233       O  0.78108914  0.25743430  0.45143545    -0.71700
O1234       O  0.81475002  0.24189069  0.38668413    -0.71900
O1235       O  0.80066214  0.21435000  0.42901885    -0.71800
O1236       O  0.79471083  0.28511793  0.40854818    -0.71800
O1237       O  0.83331878  0.29344942  0.42480390    -0.71700
O1238       O  0.83801499  0.22258423  0.44768707    -0.71800
O1239       O  0.85259790  0.24892264  0.40481801    -0.71700
O1240       O  0.81883601  0.26690402  0.46872968    -0.71900
V1241       V  0.79849589  0.24995370  0.41932688     1.35200
V1242       V  0.83493194  0.25790558  0.43627664     1.35200
C1243       C  0.79420904  0.26440443  0.47132996     0.77500
C1244       C  0.83955647  0.24227357  0.38476027     0.77600
C1245       C  0.82047151  0.20614343  0.44151200     0.77500
C1246       C  0.81337799  0.30103701  0.41200285     0.77400
O1247       O  0.78356797  0.44967593  0.28161199    -0.71700
O1248       O  0.80134564  0.39293577  0.32727430    -0.71900
O1249       O  0.75910209  0.40602951  0.29898942    -0.71800
O1250       O  0.82605749  0.43545747  0.30894196    -0.71800
O1251       O  0.81235212  0.45588402  0.34379731    -0.71700
O1252       O  0.74316879  0.42939246  0.33085899    -0.71800
O1253       O  0.78439196  0.41453849  0.35985927    -0.71700
O1254       O  0.77086270  0.47201513  0.31540368    -0.71900
V1255       V  0.79215870  0.42149597  0.30478130     1.35200
V1256       V  0.77790495  0.44265220  0.33677329     1.35200
C1257       C  0.77496388  0.47105369  0.29105892     0.77500
C1258       C  0.79526294  0.39406038  0.35140453     0.77600
C1259       C  0.73985007  0.41205137  0.31333673     0.77500
C1260       C  0.83094308  0.44984022  0.32834660     0.77400
O1261       O  0.77001590  0.79215991  0.07917807    -0.71700
O1262       O  0.80823269  0.80266751  0.14263225    -0.71900
O1263       O  0.79585452  0.83237739  0.10135479    -0.71800
O1264       O  0.78203734  0.76257111  0.12134240    -0.71800
O1265       O  0.81888276  0.75004555  0.10375020    -0.71700
O1266       O  0.83085489  0.81989137  0.08056609    -0.71800
O1267       O  0.84430918  0.79172345  0.12270332    -0.71700
O1268       O  0.80559860  0.77801542  0.06060035    -0.71900
V1269       V  0.78965813  0.79714830  0.11066565     1.35200
V1270       V  0.82415206  0.78509020  0.09213300     1.35200
C1271       C  0.78143498  0.78349784  0.05882401     0.77500
C1272       C  0.83288745  0.79919954  0.14339658     0.77600
C1273       C  0.81604058  0.83829701  0.08821907     0.77500
C1274       C  0.79860383  0.74468426  0.11713841     0.77400
O1275       O  0.73254386  0.94728815  0.28250132    -0.71700
O1276       O  0.71936259  0.88411710  0.32118668    -0.71900
O1277       O  0.69069061  0.92547905  0.30597183    -0.71800
O1278       O  0.76145807  0.90473099  0.29667420    -0.71800
O1279       O  0.77182080  0.92119222  0.33457319    -0.71700
O1280       O  0.70171329  0.94800476  0.34023551    -0.71800
O1281       O  0.72696518  0.90522959  0.35717863    -0.71700
O1282       O  0.74644753  0.96527368  0.31827539    -0.71900
V1283       V  0.72634257  0.91577622  0.30216804     1.35200
V1284       V  0.73664592  0.93463698  0.33682534     1.35200
C1285       C  0.74120820  0.96754328  0.29419296     0.77500
C1286       C  0.72018635  0.88422900  0.34615245     0.77600
C1287       C  0.68390952  0.94022367  0.32464116     0.77500
C1288       C  0.77835760  0.90795703  0.31454213     0.77400
O1289       O  0.93560527  0.78546787  0.28117119    -0.71700
O1290       O  0.87450828  0.82621851  0.29751407    -0.71900
O1291       O  0.89139988  0.79984674  0.25540740    -0.71800
O1292       O  0.91770317  0.81115227  0.32328306    -0.71800
O1293       O  0.93712225  0.84664513  0.31054389    -0.71700
O1294       O  0.91142162  0.83452482  0.24100529    -0.71800
O1295       O  0.89447841  0.86092102  0.28307532    -0.71700
O1296       O  0.95542842  0.82079370  0.26827650    -0.71900
V1297       V  0.90527019  0.80629239  0.28896994     1.35200
V1298       V  0.92435984  0.83998086  0.27589305     1.35200
C1299       C  0.95632568  0.79643121  0.27271282     0.77500
C1300       C  0.87414865  0.85064755  0.29281406     0.77600
C1301       C  0.89575692  0.81563264  0.23686743     0.77500
C1302       C  0.93107417  0.83112340  0.32902386     0.77400
O1303       O  0.77891012  0.58687633  0.24035247    -0.71700
O1304       O  0.78909933  0.65012105  0.20180468    -0.71900
O1305       O  0.74797328  0.62695657  0.22491818    -0.71800
O1306       O  0.81995459  0.61082609  0.21787742    -0.71800
O1307       O  0.81201138  0.58949584  0.18202856    -0.71700
O1308       O  0.73939855  0.60719689  0.18806408    -0.71800
O1309       O  0.78124929  0.62897005  0.16559359    -0.71700
O1310       O  0.77002392  0.56663714  0.20395482    -0.71900
V1311       V  0.78374675  0.61824139  0.22058178     1.35200
V1312       V  0.77577977  0.59837437  0.18566884     1.35200
C1313       C  0.77347843  0.56576171  0.22844031     0.77500
C1314       C  0.78701893  0.65007281  0.17703138     0.77600
C1315       C  0.73169785  0.62091070  0.20728301     0.77500
C1316       C  0.82848536  0.59747963  0.19895078     0.77400
O1317       O  0.73360445  0.74499466  0.44212975    -0.71700
O1318       O  0.69613619  0.72595339  0.38037675    -0.71900
O1319       O  0.71826914  0.77020855  0.39775839    -0.71800
O1320       O  0.71206865  0.70119882  0.42332271    -0.71800
O1321       O  0.67538540  0.71108280  0.44290929    -0.71700
O1322       O  0.68120948  0.78089293  0.41619021    -0.71800
O1323       O  0.65939819  0.73594439  0.39946614    -0.71700
O1324       O  0.69687333  0.75567798  0.46077763    -0.71900
V1325       V  0.71434796  0.73595618  0.41134460     1.35200
V1326       V  0.67896725  0.74585691  0.42956553     1.35200
C1327       C  0.72151834  0.75254419  0.46249732     0.77500
C1328       C  0.67123052  0.72715993  0.37956447     0.77600
C1329       C  0.70041376  0.78694365  0.40150398     0.77500
C1330       C  0.69254022  0.69415016  0.43677379     0.77400
O1331       O  0.60189112  0.69256490  0.27493357    -0.71700
O1332       O  0.57436944  0.69037921  0.20513610    -0.71900
O1333       O  0.61659930  0.67057493  0.22961350    -0.71800
O1334       O  0.55847779  0.71177289  0.25052684    -0.71800
O1335       O  0.57915374  0.74709655  0.23934131    -0.71700
O1336       O  0.63884664  0.70580149  0.22094263    -0.71800
O1337       O  0.59719758  0.72485389  0.19547805    -0.71700
O1338       O  0.62190634  0.72877009  0.26484400    -0.71900
V1339       V  0.58813090  0.69203552  0.23994195     1.35200
V1340       V  0.60880426  0.72599395  0.23046205     1.35200
C1341       C  0.61766979  0.71075958  0.28118629     0.77500
C1342       C  0.58179982  0.70705897  0.18816321     0.77600
C1343       C  0.63769330  0.68102309  0.22184338     0.77500
C1344       C  0.55825218  0.73635637  0.24752316     0.77400
C1345       C  0.67131543  0.71923233  0.33191083    -0.05700
C1346       C  0.65678061  0.71957146  0.35530854     0.00200
C1347       C  0.62948301  0.71313267  0.35449859    -0.08300
C1348       C  0.61746941  0.70905843  0.32985374    -0.05700
C1349       C  0.63180377  0.71117790  0.30647666     0.00200
C1350       C  0.65941179  0.71518459  0.30748190    -0.08300
C1351       C  0.67657113  0.71470733  0.28299251     0.62100
H1352       H  0.69223205  0.72310412  0.33270198     0.12800
H1353       H  0.59651678  0.70535592  0.32856606     0.12800
C1354       C  0.61294506  0.71038370  0.37919192     0.62400
F1355       F  0.70313795  0.71496346  0.28906713    -0.22800
F1356       F  0.67149330  0.73636336  0.26747122    -0.20100
F1357       F  0.67161925  0.69210258  0.26894048    -0.19800
F1358       F  0.60918196  0.73470911  0.39054224    -0.19900
F1359       F  0.62540708  0.69386650  0.39682985    -0.20200
F1360       F  0.58839178  0.69986539  0.37385902    -0.22900
C1361       C  0.70082285  0.65418070  0.19176748    -0.05700
C1362       C  0.70531720  0.63250596  0.20806648     0.00200
C1363       C  0.68672535  0.62557794  0.22739549    -0.08300
C1364       C  0.66429685  0.64140816  0.23043163    -0.05700
C1365       C  0.66061458  0.66430391  0.21538633     0.00200
C1366       C  0.67881486  0.67051953  0.19521665    -0.08300
C1367       C  0.67528836  0.69421494  0.17747951     0.62100
H1368       H  0.71561738  0.65912716  0.17729365     0.12800
H1369       H  0.65011088  0.63671168  0.24559211     0.12800
C1370       C  0.69093494  0.60184918  0.24490566     0.62400
F1371       F  0.69321484  0.69424984  0.15703941    -0.22800
F1372       F  0.67897785  0.71698342  0.19171732    -0.20100
F1373       F  0.65028280  0.69412318  0.16670894    -0.19800
F1374       F  0.71242300  0.60593591  0.26105480    -0.19900
F1375       F  0.69545190  0.57992984  0.22957364    -0.20200
F1376       F  0.66924824  0.59691967  0.26060816    -0.22900
C1377       C  0.81770247  0.89976258  0.28750378    -0.05700
C1378       C  0.80471821  0.89579146  0.31146013     0.00200
C1379       C  0.81516593  0.87752096  0.32972740    -0.08300
C1380       C  0.83793963  0.86325184  0.32290781    -0.05700
C1381       C  0.85068463  0.86697059  0.29874757     0.00200
C1382       C  0.84071205  0.88590855  0.28084079    -0.08300
C1383       C  0.85354595  0.89084883  0.25433513     0.62100
H1384       H  0.80929018  0.91366359  0.27376404     0.12800
H1385       H  0.84598285  0.84891508  0.33641185     0.12800
C1386       C  0.80175218  0.87226907  0.35577268     0.62400
F1387       F  0.83879438  0.90771861  0.23890411    -0.22800
F1388       F  0.85619218  0.86747213  0.24084732    -0.20100
F1389       F  0.87804737  0.90208138  0.25787160    -0.19800
F1390       F  0.77642747  0.86344264  0.35137014    -0.19900
F1391       F  0.80102382  0.89508800  0.37037082    -0.20200
F1392       F  0.81486207  0.85344130  0.37039231    -0.22900
C1393       C  0.70216317  0.83908421  0.34848781    -0.05700
C1394       C  0.71346536  0.86034863  0.36194097     0.00200
C1395       C  0.71826395  0.85782601  0.38956514    -0.08300
C1396       C  0.71247187  0.83379189  0.40201497    -0.05700
C1397       C  0.70215330  0.81256998  0.38814995     0.00200
C1398       C  0.69649043  0.81522850  0.36109195    -0.08300
C1399       C  0.68476441  0.79273093  0.34554735     0.62100
H1400       H  0.69812086  0.84106905  0.32771437     0.12800
H1401       H  0.71666264  0.83100774  0.42268508     0.12800
C1402       C  0.72976822  0.87979304  0.40620440     0.62400
F1403       F  0.67941892  0.79970928  0.31980694    -0.22800
F1404       F  0.66145382  0.78482061  0.35710749    -0.20100
F1405       F  0.70225963  0.77200307  0.34516646    -0.19800
F1406       F  0.71292429  0.90108081  0.40613427    -0.19900
F1407       F  0.75405647  0.88714375  0.39652726    -0.20200
F1408       F  0.73336096  0.87229087  0.43210334    -0.22900
C1409       C  0.76936479  0.68280341  0.14629689    -0.05700
C1410       C  0.79067909  0.67398712  0.16141941     0.00200
C1411       C  0.81518977  0.68694447  0.15994099    -0.08300
C1412       C  0.81725683  0.70929133  0.14396491    -0.05700
C1413       C  0.79554621  0.71900630  0.12994397     0.00200
C1414       C  0.77123313  0.70545454  0.13070537    -0.08300
C1415       C  0.74750564  0.71462653  0.11500797     0.62100
H1416       H  0.75101218  0.67206773  0.14725951     0.12800
H1417       H  0.83564584  0.72000348  0.14312833     0.12800
C1418       C  0.83906044  0.67690658  0.17480091     0.62400
F1419       F  0.72779199  0.69591571  0.11459045    -0.22800
F1420       F  0.75478509  0.71960668  0.08930683    -0.20100
F1421       F  0.73727892  0.73720636  0.12601835    -0.19800
F1422       F  0.84391148  0.65111485  0.16796485    -0.19900
F1423       F  0.83451992  0.67839279  0.20152209    -0.20200
F1424       F  0.86140961  0.69137776  0.16919001    -0.22900
C1425       C  0.87400413  0.81405692  0.16496672    -0.05700
C1426       C  0.84836151  0.80390663  0.16762396     0.00200
C1427       C  0.83871714  0.79764271  0.19295411    -0.08300
C1428       C  0.85504785  0.80216490  0.21468491    -0.05700
C1429       C  0.88060482  0.81248427  0.21215028     0.00200
C1430       C  0.89032567  0.81871334  0.18686619    -0.08300
C1431       C  0.91779549  0.82967903  0.18287334     0.62100
H1432       H  0.88112590  0.81857742  0.14546087     0.12800
H1433       H  0.84771769  0.79780639  0.23417043     0.12800
C1434       C  0.81174263  0.78542014  0.19723407     0.62400
F1435       F  0.92422368  0.83161418  0.15651988    -0.22800
F1436       F  0.93611416  0.81348153  0.19478282    -0.20100
F1437       F  0.91933964  0.85449243  0.19366706    -0.19800
F1438       F  0.80912570  0.76327443  0.18178834    -0.19900
F1439       F  0.79228427  0.80328926  0.19086867    -0.20200
F1440       F  0.80791726  0.77795338  0.22310488    -0.22900
C1441       C  0.78348120  0.49485615  0.24953374    -0.05700
C1442       C  0.77140302  0.49482481  0.27435207     0.00200
C1443       C  0.75797035  0.51787229  0.28292295    -0.08300
C1444       C  0.75887538  0.54042462  0.26702559    -0.05700
C1445       C  0.77178673  0.54057988  0.24277279     0.00200
C1446       C  0.78384152  0.51726470  0.23345389    -0.08300
C1447       C  0.79793786  0.51611692  0.20713457     0.62100
H1448       H  0.79337724  0.47724040  0.24299477     0.12800
H1449       H  0.74962083  0.55841273  0.27355881     0.12800
C1450       C  0.74265321  0.51918934  0.30856013     0.62400
F1451       F  0.81049514  0.49232909  0.20327458    -0.22800
F1452       F  0.81679503  0.53560960  0.20580600    -0.20100
F1453       F  0.77995380  0.51937589  0.18700946    -0.19800
F1454       F  0.75984999  0.51894511  0.32961477    -0.19900
F1455       F  0.72559094  0.49815111  0.31031459    -0.20200
F1456       F  0.72768272  0.54182173  0.31031732    -0.22900
C1457       C  0.78726242  0.34025709  0.40230153    -0.05700
C1458       C  0.81152098  0.32736108  0.40014966     0.00200
C1459       C  0.83122958  0.33759086  0.38329849    -0.08300
C1460       C  0.82529300  0.35986493  0.36809931    -0.05700
C1461       C  0.80058339  0.37202681  0.36941842     0.00200
C1462       C  0.78135658  0.36257529  0.38729378    -0.08300
C1463       C  0.75423263  0.37500273  0.38966636     0.62100
H1464       H  0.77255647  0.33205601  0.41533368     0.12800
H1465       H  0.83975542  0.36771470  0.35459381     0.12800
C1466       C  0.85773335  0.32423350  0.38008029     0.62400
F1467       F  0.73776393  0.36067990  0.40590353    -0.22800
F1468       F  0.74249970  0.37641246  0.36521045    -0.20100
F1469       F  0.75642547  0.39991174  0.40011826    -0.19800
F1470       F  0.85407624  0.29903518  0.37087637    -0.19900
F1471       F  0.87068362  0.32339753  0.40394730    -0.20200
F1472       F  0.87374140  0.33734022  0.36241960    -0.22900
C1473       C  0.85622786  0.21902604  0.31511246    -0.05700
C1474       C  0.88256950  0.22690977  0.31331902     0.00200
C1475       C  0.89497815  0.23884659  0.33492241    -0.08300
C1476       C  0.88023522  0.24311099  0.35786599    -0.05700
C1477       C  0.85348979  0.23585232  0.35978322     0.00200
C1478       C  0.84136947  0.22295092  0.33811887    -0.08300
C1479       C  0.81313761  0.21306080  0.33890878     0.62100
H1480       H  0.84731136  0.21007790  0.29808029     0.12800
H1481       H  0.88953182  0.25271400  0.37434036     0.12800
C1482       C  0.92347436  0.24758886  0.33333936     0.62400
F1483       F  0.80672021  0.19881297  0.31667522    -0.22800
F1484       F  0.79591839  0.23402110  0.34040635    -0.20100
F1485       F  0.80969050  0.19678595  0.36039151    -0.19800
F1486       F  0.92648005  0.26541023  0.31306574    -0.19900
F1487       F  0.93939993  0.22609163  0.32870739    -0.20200
F1488       F  0.93178554  0.25940594  0.35635237    -0.22900
C1489       C  0.74904290  0.04128081  0.27909584    -0.05700
C1490       C  0.74279830  0.04211148  0.25231254     0.00200
C1491       C  0.73722436  0.01815680  0.23906838    -0.08300
C1492       C  0.73801294  0.99443899  0.25335547    -0.05700
C1493       C  0.74373157  0.99354626  0.28037464     0.00200
C1494       C  0.74963125  0.01763707  0.29350078    -0.08300
C1495       C  0.75608882  0.01906162  0.32265819     0.62100
H1496       H  0.75332325  0.05965433  0.28881897     0.12800
H1497       H  0.73362423  0.97622401  0.24340832     0.12800
C1498       C  0.72945674  0.01737099  0.21020862     0.62400
F1499       F  0.76159430  0.04438579  0.33074794    -0.22800
F1500       F  0.77804438  0.00392024  0.32802656    -0.20100
F1501       F  0.73485478  0.01033916  0.33724795    -0.19800
F1502       F  0.72191427  0.99251598  0.20231619    -0.19900
F1503       F  0.75055843  0.02484618  0.19478298    -0.20200
F1504       F  0.70842468  0.03403394  0.20578139    -0.22900
C1505       C  0.82189970  0.14705948  0.20198533    -0.05700
C1506       C  0.81041794  0.13698661  0.22505016     0.00200
C1507       C  0.82193387  0.14268040  0.24983415    -0.08300
C1508       C  0.84383766  0.15932089  0.25070831    -0.05700
C1509       C  0.85408319  0.17064902  0.22787926     0.00200
C1510       C  0.84358984  0.16418195  0.20306536    -0.08300
C1511       C  0.85528594  0.17529209  0.17799341     0.62100
H1512       H  0.81289885  0.14273470  0.18338017     0.12800
H1513       H  0.85242159  0.16450225  0.26926815     0.12800
C1514       C  0.81078033  0.13252087  0.27562290     0.62400
F1515       F  0.84270319  0.16576444  0.15585434    -0.22800
F1516       F  0.88161960  0.16856751  0.17641354    -0.20100
F1517       F  0.85297626  0.20230115  0.17794921    -0.19800
F1518       F  0.80362177  0.10646396  0.27322903    -0.19900
F1519       F  0.78906645  0.14729692  0.28268682    -0.20200
F1520       F  0.82904329  0.13422013  0.29573617    -0.22900
C1521       C  0.66783196  0.39286888  0.30536408    -0.05700
C1522       C  0.67003406  0.36552075  0.30142138     0.00200
C1523       C  0.69549693  0.35389223  0.30177250    -0.08300
C1524       C  0.71740306  0.37003903  0.30646197    -0.05700
C1525       C  0.71504523  0.39719353  0.31029148     0.00200
C1526       C  0.68994520  0.40897874  0.30948098    -0.08300
C1527       C  0.68667160  0.43847341  0.31161466     0.62100
H1528       H  0.64850688  0.40178897  0.30497674     0.12800
H1529       H  0.73692105  0.36150144  0.30708821     0.12800
C1530       C  0.70007165  0.32486118  0.29666604     0.62400
F1531       F  0.66086516  0.44619224  0.30752483    -0.22800
F1532       F  0.70216250  0.45068872  0.29291640    -0.20100
F1533       F  0.69413332  0.44677987  0.33634893    -0.19800
F1534       F  0.68979063  0.31809394  0.27243734    -0.19900
F1535       F  0.68828166  0.31010901  0.31618631    -0.20200
F1536       F  0.72657817  0.31850242  0.29642612    -0.22900
C1537       C  0.72131875  0.17802904  0.14948479    -0.05700
C1538       C  0.72648911  0.18062235  0.17662134     0.00200
C1539       C  0.72844286  0.20611553  0.18759610    -0.08300
C1540       C  0.72419786  0.22784108  0.17112669    -0.05700
C1541       C  0.71861324  0.22507015  0.14425529     0.00200
C1542       C  0.71766813  0.19984701  0.13299907    -0.08300
C1543       C  0.71401367  0.19601484  0.10365297     0.62100
H1544       H  0.72007098  0.15858303  0.14109230     0.12800
H1545       H  0.72508533  0.24745814  0.17921413     0.12800
C1546       C  0.73563168  0.21074338  0.21619103     0.62400
F1547       F  0.71694484  0.17001328  0.09641621    -0.22800
F1548       F  0.73259434  0.21054404  0.09012440    -0.20100
F1549       F  0.68910054  0.20404925  0.09628098    -0.19800
F1550       F  0.75891519  0.19792616  0.22208207    -0.19900
F1551       F  0.71571930  0.20163066  0.23228449    -0.20200
F1552       F  0.73920845  0.23710341  0.22162290    -0.22900
C1553       C  0.63703623  0.29981856  0.17344006    -0.05700
C1554       C  0.66088821  0.31366055  0.17051815     0.00200
C1555       C  0.66663919  0.33450355  0.18811250    -0.08300
C1556       C  0.64951487  0.33897719  0.20937634    -0.05700
C1557       C  0.62700146  0.32362811  0.21327530     0.00200
C1558       C  0.61996983  0.30448575  0.19463827    -0.08300
C1559       C  0.59461187  0.28901308  0.19748289     0.62100
H1560       H  0.63223962  0.28450744  0.15952858     0.12800
H1561       H  0.65444600  0.35349735  0.22409899     0.12800
C1562       C  0.69052989  0.35205014  0.18466657     0.62400
F1563       F  0.58938497  0.27410230  0.17539246    -0.22800
F1564       F  0.57376803  0.30609908  0.20117130    -0.20100
F1565       F  0.59629857  0.27235936  0.21885167    -0.19800
F1566       F  0.69108288  0.36194885  0.15935709    -0.19900
F1567       F  0.71326929  0.33793377  0.18948887    -0.20200
F1568       F  0.69008464  0.37311013  0.20179289    -0.22900
C1569       C  0.00363788  0.30487497  0.24804228    -0.05700
C1570       C  0.02592819  0.29189019  0.25793382     0.00200
C1571       C  0.02304496  0.26681526  0.26934774    -0.08300
C1572       C  0.99825938  0.25460870  0.26828694    -0.05700
C1573       C  0.97632618  0.26651381  0.25610657     0.00200
C1574       C  0.97877941  0.29273152  0.24684138    -0.08300
C1575       C  0.95587973  0.30778882  0.23489128     0.62100
H1576       H  0.00619967  0.32430945  0.23985722     0.12800
H1577       H  0.99623413  0.23499960  0.27617185     0.12800
C1578       C  0.04592320  0.25293538  0.28259087     0.62400
F1579       F  0.96275395  0.33321053  0.22825408    -0.22800
F1580       F  0.93541035  0.30919641  0.25274350    -0.20100
F1581       F  0.94746810  0.29543965  0.21225267    -0.19800
F1582       F  0.05867884  0.27000469  0.29941965    -0.19900
F1583       F  0.06345235  0.24404813  0.26384824    -0.20200
F1584       F  0.03758069  0.23159991  0.29720902    -0.22900
C1585       C  0.16515000  0.33288968  0.33953409    -0.05700
C1586       C  0.15928057  0.31114533  0.35541724     0.00200
C1587       C  0.13744876  0.29492908  0.34883796    -0.08300
C1588       C  0.12247292  0.30112349  0.32647326    -0.05700
C1589       C  0.12824185  0.32290183  0.31082317     0.00200
C1590       C  0.14978953  0.33923141  0.31737810    -0.08300
C1591       C  0.15734812  0.36236063  0.30024725     0.62100
H1592       H  0.18202832  0.34482698  0.34453065     0.12800
H1593       H  0.10620898  0.28868822  0.32067649     0.12800
C1594       C  0.13039286  0.27053550  0.36453980     0.62400
F1595       F  0.17834464  0.37623702  0.31057692    -0.22800
F1596       F  0.13628094  0.37937216  0.29787310    -0.20100
F1597       F  0.16449835  0.35342276  0.27568328    -0.19800
F1598       F  0.12057449  0.27767075  0.38882513    -0.19900
F1599       F  0.15243822  0.25492727  0.36778355    -0.20200
F1600       F  0.11136689  0.25560225  0.35209489    -0.22900
C1601       C  0.48458153  0.28598762  0.27188426    -0.05700
C1602       C  0.48514638  0.25853791  0.27385892     0.00200
C1603       C  0.51006461  0.24577199  0.27595969    -0.08300
C1604       C  0.53307681  0.26109665  0.27698332    -0.05700
C1605       C  0.53262117  0.28859887  0.27577442     0.00200
C1606       C  0.50778949  0.30132885  0.27231237    -0.08300
C1607       C  0.50531594  0.33086245  0.26907298     0.62100
H1608       H  0.46557041  0.29540922  0.27005207     0.12800
H1609       H  0.55192869  0.25144334  0.27901534     0.12800
C1610       C  0.51283496  0.21609054  0.27798697     0.62400
F1611       F  0.47952584  0.33860521  0.26486760    -0.22800
F1612       F  0.51989069  0.33896938  0.24760552    -0.20100
F1613       F  0.51414787  0.34336856  0.29148789    -0.19800
F1614       F  0.50413951  0.20449586  0.25502708    -0.19900
F1615       F  0.49839827  0.20687125  0.29907673    -0.20200
F1616       F  0.53868510  0.20832784  0.28175170    -0.22900
C1617       C  0.34610939  0.16931380  0.32529798    -0.05700
C1618       C  0.35700125  0.16913492  0.29997746     0.00200
C1619       C  0.34651888  0.15208490  0.28063664    -0.08300
C1620       C  0.32438099  0.13691368  0.28700250    -0.05700
C1621       C  0.31267852  0.13791741  0.31192784     0.00200
C1622       C  0.32417616  0.15366081  0.33178734    -0.08300
C1623       C  0.31281152  0.15473827  0.35931264     0.62100
H1624       H  0.35486493  0.18202157  0.33991659     0.12800
H1625       H  0.31534986  0.12466260  0.27215452     0.12800
C1626       C  0.35775347  0.15074574  0.25298754     0.62400
F1627       F  0.32696141  0.17139370  0.37546001    -0.22800
F1628       F  0.31338713  0.12998084  0.37039596    -0.20100
F1629       F  0.28713301  0.16363970  0.35839788    -0.19800
F1630       F  0.38279034  0.14013684  0.25366682    -0.19900
F1631       F  0.35877189  0.17560842  0.24221516    -0.20200
F1632       F  0.34257560  0.13526486  0.23658601    -0.22900
C1633       C  0.22171808  0.22695779  0.36079830    -0.05700
C1634       C  0.21393900  0.22501282  0.38714996     0.00200
C1635       C  0.21148979  0.20011808  0.39899364    -0.08300
C1636       C  0.21592106  0.17774084  0.38340365    -0.05700
C1637       C  0.22349266  0.17965828  0.35678405     0.00200
C1638       C  0.22716942  0.20483515  0.34546301    -0.08300
C1639       C  0.23774959  0.20878683  0.31778720     0.62100
H1640       H  0.22370756  0.24631460  0.35225199     0.12800
H1641       H  0.21364975  0.15848396  0.39206394     0.12800
C1642       C  0.20549986  0.19728259  0.42806243     0.62400
F1643       F  0.24314666  0.23487822  0.31253521    -0.22800
F1644       F  0.21938284  0.20039246  0.29961331    -0.20100
F1645       F  0.26097153  0.19493351  0.31466908    -0.19800
F1646       F  0.18038640  0.20633416  0.43323980    -0.19900
F1647       F  0.22346770  0.21164056  0.44255735    -0.20200
F1648       F  0.20700325  0.17143243  0.43624814    -0.22900
C1649       C  0.18214926  0.35374834  0.21672088    -0.05700
C1650       C  0.15832114  0.36760233  0.21640511     0.00200
C1651       C  0.15846472  0.39469831  0.20956496    -0.08300
C1652       C  0.18282413  0.40727710  0.20561776    -0.05700
C1653       C  0.20667469  0.39377690  0.20824872     0.00200
C1654       C  0.20639473  0.36625879  0.21272369    -0.08300
C1655       C  0.23139508  0.34982746  0.21313131     0.62100
H1656       H  0.18180648  0.33303661  0.22138503     0.12800
H1657       H  0.18347425  0.42811549  0.20154994     0.12800
C1658       C  0.13330790  0.41052557  0.20637698     0.62400
F1659       F  0.22596484  0.32321690  0.21283691    -0.22800
F1660       F  0.24572452  0.35509158  0.23558212    -0.20100
F1661       F  0.24647364  0.35532245  0.19124517    -0.19800
F1662       F  0.13802273  0.43461388  0.19473435    -0.19900
F1663       F  0.12208684  0.41507015  0.23068790    -0.20200
F1664       F  0.11573163  0.39710225  0.19057594    -0.22900
C1665       C  0.28641461  0.34250051  0.11763579    -0.05700
C1666       C  0.30835170  0.32717838  0.12409918     0.00200
C1667       C  0.32586432  0.33584218  0.14396802    -0.08300
C1668       C  0.31925780  0.35830875  0.15851587    -0.05700
C1669       C  0.29639551  0.37274029  0.15320729     0.00200
C1670       C  0.28041349  0.36567601  0.13138278    -0.08300
C1671       C  0.25666955  0.38180959  0.12302859     0.62100
H1672       H  0.27353157  0.33562423  0.10215458     0.12800
H1673       H  0.33158349  0.36440906  0.17475618     0.12800
C1674       C  0.35037636  0.32050162  0.15121622     0.62400
F1675       F  0.24325381  0.37035579  0.10233837    -0.22800
F1676       F  0.26482993  0.40636467  0.11487276    -0.20100
F1677       F  0.23928606  0.38436579  0.14375273    -0.19800
F1678       F  0.36572084  0.31638876  0.12918722    -0.19900
F1679       F  0.34313208  0.29674841  0.16185245    -0.20200
F1680       F  0.36562099  0.33355625  0.16956215    -0.22900
C1681       C  0.37885126  0.23344895  0.16737373    -0.05700
C1682       C  0.35164051  0.23868275  0.16951721     0.00200
C1683       C  0.33990427  0.23857248  0.19489894    -0.08300
C1684       C  0.35612763  0.23424553  0.21694151    -0.05700
C1685       C  0.38316960  0.22893290  0.21460298     0.00200
C1686       C  0.39471756  0.22804092  0.18941087    -0.08300
C1687       C  0.42368300  0.22173405  0.18581158     0.62100
H1688       H  0.38767695  0.23304664  0.14803946     0.12800
H1689       H  0.34765273  0.23445329  0.23645336     0.12800
C1690       C  0.31058202  0.24297245  0.19912694     0.62400
F1691       F  0.43159822  0.22470332  0.15997113    -0.22800
F1692       F  0.42834147  0.19602558  0.19310020    -0.20100
F1693       F  0.43880603  0.23827423  0.20115268    -0.19800
F1694       F  0.29645905  0.22306231  0.18725642    -0.19900
F1695       F  0.30312662  0.26689565  0.18868877    -0.20200
F1696       F  0.30393926  0.24304127  0.22549932    -0.22900
C1697       C  0.26985818  0.24414855  0.98561559    -0.05700
C1698       C  0.24520280  0.25661126  0.98410749     0.00200
C1699       C  0.23603350  0.27082345  0.00647370    -0.08300
C1700       C  0.25161969  0.27130018  0.02941710    -0.05700
C1701       C  0.27590420  0.25836139  0.03101509     0.00200
C1702       C  0.28527864  0.24449302  0.00868966    -0.08300
C1703       C  0.31080922  0.22897755  0.00945564     0.62100
H1704       H  0.27671003  0.23333041  0.96866790     0.12800
H1705       H  0.24469126  0.28154152  0.04670691     0.12800
C1706       C  0.20994430  0.28548526  0.00664419     0.62400
F1707       F  0.31468534  0.21462525  0.98670993    -0.22800
F1708       F  0.31036720  0.21155211  0.03026644    -0.20100
F1709       F  0.33186413  0.24589191  0.01225601    -0.19800
F1710       F  0.18931755  0.26780781  0.00605083    -0.19900
F1711       F  0.20848208  0.30205292  0.98516332    -0.20200
F1712       F  0.20697383  0.30069180  0.02896274    -0.22900
C1713       C  0.23720402  0.35026678  0.86951597    -0.05700
C1714       C  0.21503399  0.36206691  0.85829120     0.00200
C1715       C  0.18959414  0.35371094  0.86584898    -0.08300
C1716       C  0.18727222  0.33234823  0.88337031    -0.05700
C1717       C  0.20961780  0.31924364  0.89308546     0.00200
C1718       C  0.23498341  0.32945120  0.88735363    -0.08300
C1719       C  0.26024325  0.31871145  0.89919432     0.62100
H1720       H  0.25658333  0.35751756  0.86428064     0.12800
H1721       H  0.16801798  0.32482822  0.88836456     0.12800
C1722       C  0.16522320  0.36729292  0.85531855     0.62400
F1723       F  0.27721837  0.33909550  0.90508258    -0.22800
F1724       F  0.27233738  0.30231833  0.88125198    -0.20100
F1725       F  0.25577268  0.30512898  0.92229304    -0.19800
F1726       F  0.16411525  0.36449464  0.82833788    -0.19900
F1727       F  0.16612893  0.39367760  0.86147818    -0.20200
F1728       F  0.14238861  0.35692861  0.86590459    -0.22900
C1729       C  0.33744495  0.37205510  0.77556015    -0.05700
C1730       C  0.34940163  0.36217898  0.79826675     0.00200
C1731       C  0.33842043  0.36731735  0.82317256    -0.08300
C1732       C  0.31496280  0.38185934  0.82451062    -0.05700
C1733       C  0.30235527  0.39098597  0.80169963     0.00200
C1734       C  0.31385649  0.38632649  0.77673762    -0.08300
C1735       C  0.30157955  0.39640788  0.75144056     0.62100
H1736       H  0.34657525  0.36802146  0.75675318     0.12800
H1737       H  0.30589773  0.38561948  0.84338975     0.12800
C1738       C  0.35164221  0.35762602  0.84802912     0.62400
F1739       F  0.31862905  0.39406328  0.73035748    -0.22800
F1740       F  0.29512634  0.42264256  0.75399385    -0.20100
F1741       F  0.27916531  0.38214430  0.74574541    -0.19800
F1742       F  0.37678822  0.36789000  0.84962175    -0.19900
F1743       F  0.35305554  0.33056983  0.84757555    -0.20200
F1744       F  0.33795581  0.36500682  0.87033872    -0.22900
C1745       C  0.24741313  0.27918857  0.53357156    -0.05700
C1746       C  0.27497213  0.28034120  0.53286032     0.00200
C1747       C  0.28786289  0.28062877  0.50802133    -0.08300
C1748       C  0.27239164  0.28148262  0.48504011    -0.05700
C1749       C  0.24476107  0.28194193  0.48587339     0.00200
C1750       C  0.23193135  0.28008421  0.51074179    -0.08300
C1751       C  0.20208918  0.28000000  0.51386257     0.62100
H1752       H  0.23789014  0.27826319  0.55255331     0.12800
H1753       H  0.28189031  0.28235860  0.46603928     0.12800
C1754       C  0.31766851  0.28085648  0.50538151     0.62400
F1755       F  0.19441607  0.27900916  0.53994073    -0.22800
F1756       F  0.19155702  0.25822557  0.50157056    -0.20100
F1757       F  0.19155999  0.30264911  0.50317898    -0.19800
F1758       F  0.32811860  0.25853886  0.51679187    -0.19900
F1759       F  0.32783625  0.30290090  0.51745630    -0.20200
F1760       F  0.32567162  0.28128144  0.47938899    -0.22900
C1761       C  0.37642077  0.32161468  0.66617209    -0.05700
C1762       C  0.35107388  0.31060850  0.66844579     0.00200
C1763       C  0.34116813  0.30415488  0.69362343    -0.08300
C1764       C  0.35753040  0.30790280  0.71546179    -0.05700
C1765       C  0.38314040  0.31808881  0.71319226     0.00200
C1766       C  0.39257604  0.32592021  0.68828096    -0.08300
C1767       C  0.41959145  0.33812475  0.68495913     0.62100
H1768       H  0.38351304  0.32679712  0.64679724     0.12800
H1769       H  0.35033239  0.30280192  0.73482192     0.12800
C1770       C  0.31388303  0.29254562  0.69759849     0.62400
F1771       F  0.42553733  0.34265136  0.65881108    -0.22800
F1772       F  0.43860515  0.32159824  0.69519745    -0.20100
F1773       F  0.42045143  0.36190904  0.69793538    -0.19800
F1774       F  0.31115314  0.27010530  0.68262042     0.08900
F1775       F  0.29495841  0.31067032  0.69037627    -0.20200
F1776       F  0.30930995  0.28580021  0.72354082    -0.22900
C1777       C  0.14867495  0.20580745  0.84922664    -0.05700
C1778       C  0.15514067  0.23168860  0.85577665     0.00200
C1779       C  0.14380778  0.25269048  0.84166642    -0.08300
C1780       C  0.12759406  0.24704858  0.82012930    -0.05700
C1781       C  0.12199166  0.22114797  0.81254164     0.00200
C1782       C  0.13187632  0.20004272  0.82793376    -0.08300
C1783       C  0.12531787  0.17165468  0.82180267     0.62100
H1784       H  0.15696252  0.19014314  0.86100099     0.12800
H1785       H  0.11957107  0.26301351  0.80859046     0.12800
C1786       C  0.14932788  0.28093608  0.84909021     0.62400
F1787       F  0.13697043  0.15453000  0.83943017    -0.22800
F1788       F  0.13410250  0.16523473  0.79692540    -0.20100
F1789       F  0.09837436  0.16802277  0.82320935    -0.19800
F1790       F  0.17615142  0.28540390  0.84838724    -0.19900
F1791       F  0.13994318  0.28567699  0.87411734    -0.20200
F1792       F  0.13732914  0.29851686  0.83214945    -0.22900
C1793       C  0.20747357  0.16554395  0.73524031    -0.05700
C1794       C  0.20771429  0.14262603  0.71983242     0.00200
C1795       C  0.18402684  0.13438480  0.70753914    -0.08300
C1796       C  0.16095255  0.14924096  0.71168205    -0.05700
C1797       C  0.16114258  0.17238182  0.72661010     0.00200
C1798       C  0.18479464  0.18081051  0.73856224    -0.08300
C1799       C  0.18616116  0.20548275  0.75527929     0.62100
H1800       H  0.22561886  0.17199747  0.74427635     0.12800
H1801       H  0.14255527  0.14321526  0.70279336     0.12800
C1802       C  0.18285090  0.11018402  0.69026764     0.62400
F1803       F  0.21057235  0.20862070  0.76695149    -0.22800
F1804       F  0.16762630  0.20424406  0.77505836    -0.20100
F1805       F  0.18148037  0.22731398  0.73986647    -0.19800
F1806       F  0.19251416  0.08872925  0.70383381    -0.19900
F1807       F  0.19765360  0.11420968  0.66783873    -0.20200
F1808       F  0.15736573  0.10448261  0.68251584    -0.22900
C1809       C  0.31252555  0.17712340  0.64658937    -0.05700
C1810       C  0.29309833  0.17758338  0.66621164     0.00200
C1811       C  0.27685149  0.19982556  0.66892308    -0.08300
C1812       C  0.28156863  0.22157135  0.65281587    -0.05700
C1813       C  0.30170248  0.22191861  0.63371320     0.00200
C1814       C  0.31724177  0.19899098  0.63016669    -0.08300
C1815       C  0.33841947  0.19725812  0.60922330     0.62100
H1816       H  0.32425079  0.15951124  0.64451100     0.12800
H1817       H  0.26943548  0.23879393  0.65547747     0.12800
C1818       C  0.25384119  0.20018974  0.68797313     0.62400
F1819       F  0.34902246  0.17229727  0.60754186    -0.22800
F1820       F  0.35865779  0.21440144  0.61506038    -0.20100
F1821       F  0.32782968  0.20346643  0.58496540    -0.19800
F1822       F  0.26289571  0.19787905  0.71346004    -0.19900
F1823       F  0.23715472  0.17956218  0.68233237    -0.20200
F1824       F  0.23938355  0.22314972  0.68626230    -0.22900
C1825       C  0.75291016  0.27790390  0.99539989    -0.05700
C1826       C  0.78050835  0.27719188  0.99685811     0.00200
C1827       C  0.79256591  0.27541527  0.02206964    -0.08300
C1828       C  0.77650974  0.27691241  0.04465518    -0.05700
C1829       C  0.74899909  0.27928054  0.04308681     0.00200
C1830       C  0.73683634  0.27881450  0.01785308    -0.08300
C1831       C  0.70711022  0.28007543  0.01407140     0.62100
H1832       H  0.74383943  0.27835154  0.97618155     0.12800
H1833       H  0.78545893  0.27658961  0.06394534     0.12800
C1834       C  0.82211875  0.27228236  0.02554141     0.62400
F1835       F  0.70003297  0.28054993  0.98780885    -0.22800
F1836       F  0.69718062  0.30257982  0.02554434    -0.20100
F1837       F  0.69550540  0.25819053  0.02517947    -0.19800
F1838       F  0.83503806  0.29401478  0.01565802    -0.19900
F1839       F  0.83052522  0.24995819  0.01259741    -0.20200
F1840       F  0.82914217  0.26967983  0.05169052    -0.22900
C1841       C  0.97901835  0.25709233  0.74748109    -0.05700
C1842       C  0.98080049  0.28204846  0.75909416     0.00200
C1843       C  0.00532496  0.29016114  0.76994373    -0.08300
C1844       C  0.02741952  0.27383704  0.76673371    -0.05700
C1845       C  0.02579853  0.24965035  0.75382354     0.00200
C1846       C  0.00108325  0.24068622  0.74459168    -0.08300
C1847       C  0.99811752  0.21457446  0.73054298     0.62100
H1848       H  0.96026821  0.25085324  0.73958419     0.12800
H1849       H  0.04647137  0.28010571  0.77392698     0.12800
C1850       C  0.00862882  0.31573629  0.78488087     0.62400
F1851       F  0.97281286  0.21085036  0.72115563    -0.22800
F1852       F  0.00368040  0.19428989  0.74769458    -0.20100
F1853       F  0.01514625  0.21349596  0.70937890    -0.19800
F1854       F  0.98900437  0.31810795  0.80351379    -0.19900
F1855       F  0.00756484  0.33671522  0.76769979    -0.20200
F1856       F  0.03253894  0.31684312  0.79790829    -0.22900
C1857       C  0.86508775  0.33628132  0.82281815    -0.05700
C1858       C  0.89112511  0.32765951  0.82081326     0.00200
C1859       C  0.90297162  0.31413189  0.84182252    -0.08300
C1860       C  0.88761089  0.30825651  0.86400423    -0.05700
C1861       C  0.86081325  0.31537247  0.86553666     0.00200
C1862       C  0.84957707  0.33061708  0.84491774    -0.08300
C1863       C  0.82142567  0.34075188  0.84562843     0.62100
H1864       H  0.85657742  0.34644881  0.80614763     0.12800
H1865       H  0.89632423  0.29720614  0.87995148     0.12800
C1866       C  0.93150384  0.30555223  0.84033110     0.62400
F1867       F  0.81615917  0.35766252  0.82498678    -0.22800
F1868       F  0.81710632  0.35438818  0.86870656    -0.20100
F1869       F  0.80401358  0.31999907  0.84381359    -0.19800
F1870       F  0.94725549  0.32738831  0.83697302    -0.19900
F1871       F  0.93503724  0.28872130  0.81933698    -0.20200
F1872       F  0.93950716  0.29274567  0.86294585    -0.22900
C1873       C  0.82798937  0.18840525  0.86611975    -0.05700
C1874       C  0.80301116  0.17673790  0.86712003     0.00200
C1875       C  0.78383753  0.18646903  0.88492301    -0.08300
C1876       C  0.79012905  0.20837744  0.90028248    -0.05700
C1877       C  0.81476662  0.22057069  0.89878777     0.00200
C1878       C  0.83438226  0.21015075  0.88195259    -0.08300
C1879       C  0.86147217  0.22247884  0.87990607     0.62100
H1880       H  0.84242687  0.18035341  0.85271313     0.12800
H1881       H  0.77550132  0.21668974  0.91332889     0.12800
C1882       C  0.75643098  0.17463533  0.88713601     0.62400
F1883       F  0.87735781  0.20938499  0.86213156    -0.22800
F1884       F  0.87375950  0.22171304  0.90412496    -0.20100
F1885       F  0.85918222  0.24822116  0.87170852    -0.19800
F1886       F  0.75800499  0.14972492  0.89773042    -0.19900
F1887       F  0.74482109  0.17340680  0.86264514    -0.20200
F1888       F  0.74012360  0.18936465  0.90316239    -0.22900
C1889       C  0.74347154  0.27214748  0.52591914    -0.05700
C1890       C  0.75843287  0.26554800  0.54832113     0.00200
C1891       C  0.78608900  0.26244656  0.54548484    -0.08300
C1892       C  0.79705962  0.26374587  0.52004384    -0.05700
C1893       C  0.78150562  0.26777334  0.49748658     0.00200
C1894       C  0.75430486  0.27315690  0.50060335    -0.08300
C1895       C  0.73628027  0.27935035  0.47753041     0.62100
H1896       H  0.72252531  0.27530143  0.52802115     0.12800
H1897       H  0.81790988  0.26019940  0.51747522     0.12800
C1898       C  0.80410427  0.25735172  0.56874587     0.62400
F1899       F  0.71204025  0.28874280  0.48568962    -0.22800
F1900       F  0.73186054  0.25686693  0.46303400    -0.20100
F1901       F  0.74757028  0.29835736  0.46175020    -0.19800
F1902       F  0.79863909  0.23307524  0.57953206    -0.19900
F1903       F  0.80057091  0.27664744  0.58746106    -0.20200
F1904       F  0.83039839  0.25753258  0.56158394    -0.22900
C1905       C  0.82238165  0.39330958  0.70237248    -0.05700
C1906       C  0.81384485  0.41020688  0.72232122     0.00200
C1907       C  0.82895356  0.41286514  0.74551529    -0.08300
C1908       C  0.85121530  0.39678847  0.74884751    -0.05700
C1909       C  0.85835857  0.37811178  0.72991495     0.00200
C1910       C  0.84451324  0.37708823  0.70576980    -0.08300
C1911       C  0.85340800  0.35944749  0.68351851     0.62100
H1912       H  0.81065147  0.39178722  0.68466275     0.12800
H1913       H  0.86250625  0.39783348  0.76687040     0.12800
C1914       C  0.82150295  0.43249914  0.76663528     0.62400
F1915       F  0.83914726  0.36383726  0.66075834    -0.22800
F1916       F  0.85028829  0.33343487  0.69046580    -0.20100
F1917       F  0.87959688  0.36435386  0.67811288    -0.19800
F1918       F  0.79909104  0.42423824  0.77958930    -0.19900
F1919       F  0.81683901  0.45675146  0.75534552    -0.20200
F1920       F  0.84135896  0.43541409  0.78502474    -0.22900
C1921       C  0.70362144  0.32453705  0.66599263    -0.05700
C1922       C  0.71913635  0.32041448  0.64363541     0.00200
C1923       C  0.73810283  0.33918080  0.63623460    -0.08300
C1924       C  0.74152718  0.36143193  0.65209077    -0.05700
C1925       C  0.72670168  0.36534340  0.67511878     0.00200
C1926       C  0.70693507  0.34684875  0.68195466    -0.08300
C1927       C  0.68909275  0.35066060  0.70556264     0.62100
H1928       H  0.68939542  0.30962712  0.67129272     0.12800
H1929       H  0.75627535  0.37581234  0.64678491     0.12800
C1930       C  0.75459690  0.33552619  0.61167373     0.62400
F1931       F  0.66958928  0.33173946  0.70676988    -0.22800
F1932       F  0.67694070  0.37490231  0.70411121    -0.20100
F1933       F  0.70368761  0.34906600  0.72842550    -0.19800
F1934       F  0.73824767  0.33245183  0.59016749    -0.19900
F1935       F  0.77021397  0.31349945  0.61430549    -0.20200
F1936       F  0.77085275  0.35680090  0.60700732    -0.22900
C1937       C  0.53298229  0.28423645  0.76852070    -0.05700
C1938       C  0.53307740  0.25703754  0.77272925     0.00200
C1939       C  0.50854469  0.24359044  0.77443997    -0.08300
C1940       C  0.48512270  0.25825298  0.77327494    -0.05700
C1941       C  0.48500567  0.28566924  0.77076299     0.00200
C1942       C  0.50950283  0.29892792  0.76736973    -0.08300
C1943       C  0.51143616  0.32840150  0.76304300     0.62100
H1944       H  0.55174390  0.29410696  0.76667404     0.12800
H1945       H  0.46644225  0.24826036  0.77514240     0.12800
C1946       C  0.50656654  0.21407057  0.77854172     0.62400
F1947       F  0.53715174  0.33654579  0.75923706    -0.22800
F1948       F  0.50181145  0.34159659  0.78472074    -0.20100
F1949       F  0.49726156  0.33540955  0.74091879    -0.19800
F1950       F  0.51938275  0.20703299  0.80146877    -0.19900
F1951       F  0.51763263  0.20109701  0.75740939    -0.20200
F1952       F  0.48073587  0.20567275  0.78065905    -0.22900
C1953       C  0.64609611  0.20465529  0.70617432    -0.05700
C1954       C  0.63123651  0.22624214  0.71467553     0.00200
C1955       C  0.63257302  0.25026325  0.70073486    -0.08300
C1956       C  0.65044153  0.25242161  0.67991477    -0.05700
C1957       C  0.66668837  0.23146542  0.67260951     0.00200
C1958       C  0.66376897  0.20681864  0.68500856    -0.08300
C1959       C  0.67831976  0.18285152  0.67519279     0.62100
H1960       H  0.64456235  0.18638525  0.71692798     0.12800
H1961       H  0.65237559  0.27088511  0.66953606     0.12800
C1962       C  0.61540474  0.27365241  0.70776713     0.62400
F1963       F  0.67199771  0.16061868  0.68947793    -0.22800
F1964       F  0.70517835  0.18672073  0.67704107    -0.20100
F1965       F  0.67150546  0.17848401  0.64928880    -0.19800
F1966       F  0.62489955  0.28568222  0.73015582    -0.19900
F1967       F  0.58976398  0.26554719  0.71200035    -0.20200
F1968       F  0.61504741  0.29211509  0.68781575    -0.22900
C1969       C  0.69283510  0.19338030  0.79808535    -0.05700
C1970       C  0.66894898  0.18162674  0.80497560     0.00200
C1971       C  0.66905025  0.15605174  0.81616699    -0.08300
C1972       C  0.69316123  0.14265693  0.81856601    -0.05700
C1973       C  0.71693095  0.15385484  0.81025478     0.00200
C1974       C  0.71694755  0.18010925  0.80055215    -0.08300
C1975       C  0.74207038  0.19460203  0.79311125     0.62100
H1976       H  0.69236209  0.21295397  0.78984015     0.12800
H1977       H  0.69353025  0.12292599  0.82643213     0.12800
C1978       C  0.64405883  0.14288333  0.82595427     0.62400
F1979       F  0.73744282  0.22085573  0.78788253    -0.22800
F1980       F  0.75292531  0.18363807  0.77078054    -0.20100
F1981       F  0.75997491  0.19337334  0.81352124    -0.19800
F1982       F  0.62857814  0.13550747  0.80488966    -0.19900
F1983       F  0.63014629  0.15992686  0.84189374    -0.20200
F1984       F  0.64949482  0.12058062  0.84051037    -0.22900
C1985       C  0.24653616  0.04350882  0.25265407    -0.05700
C1986       C  0.25050065  0.04373209  0.27998761     0.00200
C1987       C  0.25602645  0.01953303  0.29297822    -0.08300
C1988       C  0.25646502  0.99628124  0.27807481    -0.05700
C1989       C  0.25121744  0.99602644  0.25102297     0.00200
C1990       C  0.24642938  0.02019944  0.23790936    -0.08300
C1991       C  0.24001880  0.02168602  0.20874392     0.62100
H1992       H  0.24268579  0.06191415  0.24280671     0.12800
H1993       H  0.26024738  0.97772625  0.28770032     0.12800
C1994       C  0.26081545  0.01759297  0.32242891     0.62400
F1995       F  0.23419002  0.04698480  0.20073512    -0.22800
F1996       F  0.21831323  0.00627016  0.20324087    -0.20100
F1997       F  0.26138596  0.01321106  0.19422196    -0.19800
F1998       F  0.23853145  0.02545441  0.33589978    -0.19900
F1999       F  0.28197004  0.03315893  0.32941424    -0.20200
F2000       F  0.26653888  0.99222610  0.33030422    -0.22900
C2001       C  0.50656732  0.79087520  0.25309999    -0.05700
C2002       C  0.48319643  0.77610234  0.25426172     0.00200
C2003       C  0.48497590  0.74840923  0.25605820    -0.08300
C2004       C  0.50999277  0.73662834  0.25490085    -0.05700
C2005       C  0.53331742  0.75130673  0.25195657     0.00200
C2006       C  0.53161841  0.77911616  0.25191187    -0.08300
C2007       C  0.55578712  0.79661769  0.25038842     0.62100
H2008       H  0.50505868  0.81201246  0.25196919     0.12800
H2009       H  0.51129502  0.71545951  0.25531534     0.12800
C2010       C  0.46086922  0.73110742  0.25936808     0.62400
F2011       F  0.54954629  0.82280915  0.25391292    -0.22800
F2012       F  0.56751450  0.79418410  0.22600388    -0.20100
F2013       F  0.57349083  0.78968069  0.26984567    -0.19800
F2014       F  0.44618849  0.73103186  0.23651042    -0.19900
F2015       F  0.44570069  0.74031613  0.27986036    -0.20200
F2016       F  0.46756960  0.70540483  0.26507650    -0.22900
C2017       C  0.35132990  0.88606317  0.24203210    -0.05700
C2018       C  0.35427728  0.86362450  0.22623452     0.00200
C2019       C  0.33598752  0.85883723  0.20570308    -0.08300
C2020       C  0.31524139  0.87675798  0.20202045    -0.05700
C2021       C  0.31132364  0.89785700  0.21920196     0.00200
C2022       C  0.32975020  0.90299290  0.23923400    -0.08300
C2023       C  0.32643526  0.92616082  0.25762553     0.62100
H2024       H  0.36548484  0.88962684  0.25752778     0.12800
H2025       H  0.30074509  0.87338176  0.18679099     0.12800
C2026       C  0.33778892  0.83482259  0.18814687     0.62400
F2027       F  0.34834504  0.92973370  0.27338722    -0.22800
F2028       F  0.30493337  0.92216783  0.27376200    -0.20100
F2029       F  0.32262085  0.94881534  0.24315242    -0.19800
F2030       F  0.33320632  0.81246652  0.20284117    -0.19900
F2031       F  0.36248711  0.83338978  0.17680453    -0.20200
F2032       F  0.31934627  0.83546759  0.16812751    -0.22900
C2033       C  0.36739602  0.78280098  0.34971606    -0.05700
C2034       C  0.35035234  0.80315577  0.35694880     0.00200
C2035       C  0.35092527  0.82720506  0.34313447    -0.08300
C2036       C  0.36784391  0.82952449  0.32134037    -0.05700
C2037       C  0.38404609  0.80864565  0.31339368     0.00200
C2038       C  0.38433173  0.78510711  0.32811348    -0.08300
C2039       C  0.40293465  0.76282098  0.32152492     0.62100
H2040       H  0.36714287  0.76484777  0.36110882     0.12800
H2041       H  0.36800423  0.84742140  0.30986391     0.12800
C2042       C  0.33435461  0.85037466  0.35185613     0.62400
F2043       F  0.40308051  0.74369920  0.34084951    -0.22800
F2044       F  0.42827094  0.77245087  0.31916313    -0.20100
F2045       F  0.39536039  0.75119310  0.29822508    -0.19800
F2046       F  0.33990232  0.85629149  0.37778587    -0.19900
F2047       F  0.30794151  0.84433391  0.34948884    -0.20200
F2048       F  0.33932124  0.87249805  0.33689033    -0.22900
C2049       C  0.22692779  0.81324525  0.16962138    -0.05700
C2050       C  0.21320280  0.81516661  0.14567767     0.00200
C2051       C  0.20137518  0.83937891  0.13865244    -0.08300
C2052       C  0.20601022  0.86133048  0.15478120    -0.05700
C2053       C  0.22061665  0.85943023  0.17818129     0.00200
C2054       C  0.23039721  0.83477343  0.18632896    -0.08300
C2055       C  0.24478318  0.83105284  0.21224790     0.62100
H2056       H  0.23481398  0.79439038  0.17542646     0.12800
H2057       H  0.19812694  0.88030092  0.14930107     0.12800
C2058       C  0.18414276  0.84227200  0.11444814     0.62400
F2059       F  0.26594507  0.84793073  0.21371930    -0.22800
F2060       F  0.25428743  0.80577585  0.21520385    -0.20100
F2061       F  0.22775612  0.83600183  0.23283152    -0.19800
F2062       F  0.16192382  0.82684229  0.11714729    -0.19900
F2063       F  0.19794748  0.83468788  0.09232073    -0.20200
F2064       F  0.17587555  0.86789400  0.11078540    -0.22900
C2065       C  0.26379684  0.52021693  0.28873016    -0.05700
C2066       C  0.26591037  0.54383474  0.27433031     0.00200
C2067       C  0.26605135  0.54239883  0.24644484    -0.08300
C2068       C  0.26427205  0.51760753  0.23439606    -0.05700
C2069       C  0.26338775  0.49399092  0.24878080     0.00200
C2070       C  0.26298912  0.49534129  0.27658266    -0.08300
C2071       C  0.26211148  0.47086418  0.29357161     0.62100
H2072       H  0.26386157  0.52121165  0.30994840     0.12800
H2073       H  0.26486715  0.51650025  0.21319354     0.12800
C2074       C  0.26873224  0.56653651  0.22907978     0.62400
F2075       F  0.25831388  0.47678635  0.31983022    -0.22800
F2076       F  0.28565871  0.45741450  0.29144749    -0.20100
F2077       F  0.24160189  0.45488316  0.28566628    -0.19800
F2078       F  0.29310081  0.57796080  0.23301740    -0.19900
F2079       F  0.24901165  0.58431452  0.23488260    -0.20200
F2080       F  0.26676043  0.56051112  0.20263693    -0.22900
C2081       C  0.32154897  0.70995268  0.37638328    -0.05700
C2082       C  0.30249093  0.71627925  0.39528617     0.00200
C2083       C  0.28123010  0.69903662  0.39983240    -0.08300
C2084       C  0.27896236  0.67655368  0.38408099    -0.05700
C2085       C  0.29654631  0.67148998  0.36338518     0.00200
C2086       C  0.31903017  0.68764039  0.36029770    -0.08300
C2087       C  0.34081778  0.68072706  0.34113512     0.62100
H2088       H  0.33793014  0.72325454  0.37360435     0.12800
H2089       H  0.26272884  0.66321182  0.38720191     0.12800
C2090       C  0.26118174  0.70431414  0.42129918     0.62400
F2091       F  0.36214649  0.69745273  0.34347296    -0.22800
F2092       F  0.33170821  0.68231021  0.31561949    -0.20100
F2093       F  0.34950562  0.65551774  0.34614463    -0.19800
F2094       F  0.24698063  0.72670041  0.41549607    -0.19900
F2095       F  0.27400228  0.70767386  0.44502399    -0.20200
F2096       F  0.24355300  0.68379831  0.42404415    -0.22900
C2097       C  0.00509742  0.79601573  0.27471841    -0.05700
C2098       C  0.98177821  0.78199385  0.26979754     0.00200
C2099       C  0.98359560  0.75507226  0.26322689    -0.08300
C2100       C  0.00854925  0.74291563  0.26343006    -0.05700
C2101       C  0.03181647  0.75646462  0.27021849     0.00200
C2102       C  0.03006986  0.78388712  0.27524685    -0.08300
C2103       C  0.05400741  0.80053195  0.28182331     0.62100
H2104       H  0.00346864  0.81664804  0.27940926     0.12800
H2105       H  0.00978552  0.72217884  0.25915588     0.12800
C2106       C  0.95945741  0.73908506  0.25594500     0.62400
F2107       F  0.04779482  0.82689322  0.28383123    -0.22800
F2108       F  0.07275377  0.79801409  0.26228967    -0.20100
F2109       F  0.06445950  0.79272441  0.30565979    -0.19800
F2110       F  0.94508343  0.75207937  0.23685971    -0.19900
F2111       F  0.94394203  0.73524127  0.27790852    -0.20200
F2112       F  0.96616043  0.71468346  0.24609667    -0.22900
C2113       C  0.15942051  0.71560557  0.21837959    -0.05700
C2114       C  0.13203001  0.71557191  0.21504081     0.00200
C2115       C  0.12121422  0.71766407  0.18967430    -0.08300
C2116       C  0.13842976  0.72177318  0.16842681    -0.05700
C2117       C  0.16598959  0.72351959  0.17182332     0.00200
C2118       C  0.17679811  0.71913009  0.19723763    -0.08300
C2119       C  0.20626249  0.71864251  0.20260264     0.62100
H2120       H  0.16710263  0.71330415  0.23810280     0.12800
H2121       H  0.13026683  0.72421631  0.14894441     0.12800
C2122       C  0.09170703  0.71657598  0.18530525     0.62400
F2123       F  0.21186007  0.71317022  0.22866002    -0.22800
F2124       F  0.21716382  0.74279369  0.19674826    -0.20100
F2125       F  0.21806768  0.69934785  0.18758376    -0.19800
F2126       F  0.07950202  0.73607355  0.19972623    -0.19900
F2127       F  0.08222360  0.69241984  0.19319892    -0.20200
F2128       F  0.08516347  0.72004761  0.15913890    -0.22900
C2129       C  0.18940493  0.63018896  0.29159880    -0.05700
C2130       C  0.20497137  0.63690349  0.31325590     0.00200
C2131       C  0.19679008  0.65745415  0.33003831    -0.08300
C2132       C  0.17329922  0.67092836  0.32434052    -0.05700
C2133       C  0.15800889  0.66477220  0.30224303     0.00200
C2134       C  0.16593984  0.64371859  0.28569156    -0.08300
C2135       C  0.15063952  0.63627431  0.26116208     0.62100
H2136       H  0.19636125  0.61471918  0.27879107     0.12800
H2137       H  0.16705862  0.68700698  0.33674891     0.12800
C2138       C  0.21382665  0.66632322  0.35271667     0.62400
F2139       F  0.16351180  0.61728543  0.24658319    -0.22800
F2140       F  0.14737611  0.65803788  0.24527837    -0.20100
F2141       F  0.12629099  0.62638407  0.26812413    -0.19800
F2142       F  0.23760502  0.67511575  0.34298829    -0.19900
F2143       F  0.21801650  0.64559764  0.36973152    -0.20200
F2144       F  0.20240415  0.68658501  0.36675938    -0.22900
C2145       C  0.27352310  0.99904179  0.75622983    -0.05700
C2146       C  0.26969158  0.00032141  0.78353109     0.00200
C2147       C  0.26674143  0.02548594  0.79546151    -0.08300
C2148       C  0.26726799  0.04803325  0.77939252    -0.05700
C2149       C  0.27130968  0.04662990  0.75217758     0.00200
C2150       C  0.27496774  0.02161559  0.74037172    -0.08300
C2151       C  0.28168365  0.01845122  0.71141757     0.62100
H2152       H  0.27593606  0.97996516  0.74726985     0.12800
H2153       H  0.26482613  0.06723060  0.78810509     0.12800
C2154       C  0.26389004  0.02908425  0.82499518     0.62400
F2155       F  0.28790614  0.99278196  0.70512051    -0.22800
F2156       F  0.30328051  0.03375961  0.70519065    -0.20100
F2157       F  0.26041286  0.02577951  0.69613709    -0.19800
F2158       F  0.28534313  0.01820105  0.83773708    -0.19900
F2159       F  0.24094938  0.01728347  0.83358823    -0.20200
F2160       F  0.26269010  0.05527011  0.83205910    -0.22900
C2161       C  0.21133574  0.87342149  0.80541983    -0.05700
C2162       C  0.20824308  0.89981187  0.81278084     0.00200
C2163       C  0.18266924  0.91014863  0.81607593    -0.08300
C2164       C  0.16102330  0.89397985  0.81013235    -0.05700
C2165       C  0.16407366  0.86759161  0.80233114     0.00200
C2166       C  0.18976819  0.85689204  0.80057380    -0.08300
C2167       C  0.19473892  0.82846318  0.79315564     0.62100
H2168       H  0.23112343  0.86567819  0.80377351     0.12800
H2169       H  0.14133962  0.90189528  0.81182422     0.12800
C2170       C  0.17819398  0.93806293  0.82537237     0.62400
F2171       F  0.22134049  0.82291294  0.79106618    -0.22800
F2172       F  0.18317172  0.82305848  0.76916953    -0.20100
F2173       F  0.18441836  0.81211102  0.81222468    -0.19800
F2174       F  0.19136349  0.95539750  0.80913348    -0.19900
F2175       F  0.18737773  0.94075311  0.85079177    -0.20200
F2176       F  0.15176719  0.94473415  0.82526133    -0.22900
C2177       C  0.27440608  0.75303852  0.04100810    -0.05700
C2178       C  0.24870456  0.76316591  0.04238167     0.00200
C2179       C  0.23737659  0.77426215  0.01928064    -0.08300
C2180       C  0.25111104  0.77199533  0.99531780    -0.05700
C2181       C  0.27608581  0.76036448  0.99384072     0.00200
C2182       C  0.28847110  0.75165072  0.01729677    -0.08300
C2183       C  0.31600829  0.73993053  0.01745788     0.62100
H2184       H  0.28330642  0.74534756  0.05871315     0.12800
H2185       H  0.24229535  0.77919806  0.97733336     0.12800
C2186       C  0.21119296  0.78870535  0.01951585     0.62400
F2187       F  0.32301466  0.73039116  0.04195046    -0.22800
F2188       F  0.33417654  0.75888997  0.01055408    -0.20100
F2189       F  0.31733033  0.71933880  0.99992950    -0.19800
F2190       F  0.21112174  0.80717052  0.03940731    -0.19900
F2191       F  0.19077597  0.77117807  0.02320311    -0.20200
F2192       F  0.20666252  0.80182492  0.99612122    -0.22900
C2193       C  0.27789359  0.83585026  0.90104348    -0.05700
C2194       C  0.30228519  0.82316093  0.89847186     0.00200
C2195       C  0.32166191  0.83381671  0.88155364    -0.08300
C2196       C  0.31524239  0.85604444  0.86660352    -0.05700
C2197       C  0.29101499  0.86886850  0.86926834     0.00200
C2198       C  0.27197342  0.85887328  0.88700147    -0.08300
C2199       C  0.24503366  0.87149139  0.89004058     0.62100
H2200       H  0.26326009  0.82718245  0.91385345     0.12800
H2201       H  0.32919565  0.86355630  0.85251367     0.12800
C2202       C  0.34862939  0.82135593  0.87844814     0.62400
F2203       F  0.22854366  0.85671779  0.90583901    -0.22800
F2204       F  0.23318219  0.87397360  0.86571955    -0.20100
F2205       F  0.24756821  0.89597045  0.90137916    -0.19800
F2206       F  0.34599641  0.79601092  0.86934967    -0.19900
F2207       F  0.36147292  0.82115060  0.90239176    -0.20200
F2208       F  0.36425988  0.83493797  0.86081277    -0.22900
C2209       C  0.37406555  0.73028240  0.85587666    -0.05700
C2210       C  0.34663958  0.73461879  0.85416938     0.00200
C2211       C  0.33442278  0.73429522  0.82907690    -0.08300
C2212       C  0.35022107  0.72973616  0.80688065    -0.05700
C2213       C  0.37755422  0.72594300  0.80872455     0.00200
C2214       C  0.38980723  0.72616450  0.83355724    -0.08300
C2215       C  0.41940507  0.72319575  0.83639827     0.62100
H2216       H  0.38333765  0.73033775  0.87500926     0.12800
H2217       H  0.34133424  0.72948980  0.78754220     0.12800
C2218       C  0.30520574  0.73956771  0.82524979     0.62400
F2219       F  0.42756534  0.72657404  0.86211794    -0.22800
F2220       F  0.43205359  0.74175010  0.82110484    -0.20100
F2221       F  0.42693772  0.69840305  0.82843216    -0.19800
F2222       F  0.29874388  0.76370867  0.83582305    -0.19900
F2223       F  0.29060194  0.72010117  0.83728443    -0.20200
F2224       F  0.29822076  0.73999294  0.79896205    -0.22900
C2225       C  0.26318601  0.53268021  0.76216321    -0.05700
C2226       C  0.25044017  0.53478994  0.73786227     0.00200
C2227       C  0.23800656  0.51231069  0.72706427    -0.08300
C2228       C  0.23692718  0.48912875  0.74214443    -0.05700
C2229       C  0.24827942  0.48741192  0.76727470     0.00200
C2230       C  0.26306239  0.50921056  0.77680656    -0.08300
C2231       C  0.27890233  0.50811792  0.80213604     0.62100
H2232       H  0.27303135  0.54988477  0.76983069     0.12800
H2233       H  0.22637764  0.47230761  0.73462722     0.12800
C2234       C  0.22494845  0.51294921  0.70022131     0.62400
F2235       F  0.29574141  0.52932729  0.80446331    -0.22800
F2236       F  0.29417973  0.48564191  0.80260813    -0.20100
F2237       F  0.26216181  0.50838426  0.82354267    -0.19800
F2238       F  0.24369424  0.51761431  0.68109952    -0.19900
F2239       F  0.20608528  0.53248657  0.69950414    -0.20200
F2240       F  0.21269920  0.48945821  0.69425189    -0.22900
C2241       C  0.31797017  0.65410220  0.69278157    -0.05700
C2242       C  0.31423692  0.63316148  0.71023742     0.00200
C2243       C  0.33176838  0.62950105  0.73141587    -0.08300
C2244       C  0.35183074  0.64802378  0.73529661    -0.05700
C2245       C  0.35431832  0.67031217  0.71913919     0.00200
C2246       C  0.33751875  0.67314944  0.69706072    -0.08300
C2247       C  0.33984101  0.69614632  0.67824528     0.62100
H2248       H  0.30409396  0.65650145  0.67679139     0.12800
H2249       H  0.36511649  0.64574848  0.75177966     0.12800
C2250       C  0.32924485  0.60610309  0.74971088     0.62400
F2251       F  0.32345860  0.69334129  0.65669532    -0.22800
F2252       F  0.36542734  0.69811227  0.66915938    -0.20100
F2253       F  0.33287057  0.71907126  0.69094262    -0.19800
F2254       F  0.32838213  0.58326093  0.73511211    -0.19900
F2255       F  0.30648762  0.60813091  0.76443294    -0.20200
F2256       F  0.35031949  0.60435127  0.76687161    -0.22900
C2257       C  0.24717987  0.76588244  0.49265167    -0.05700
C2258       C  0.27070924  0.77998894  0.49080562     0.00200
C2259       C  0.28078040  0.79297378  0.51329897    -0.08300
C2260       C  0.26655162  0.79164635  0.53684221    -0.05700
C2261       C  0.24249127  0.77828867  0.53873839     0.00200
C2262       C  0.23283502  0.76451567  0.51630411    -0.08300
C2263       C  0.20772101  0.74833958  0.51685294     0.62100
H2264       H  0.24001007  0.75608566  0.47519398     0.12800
H2265       H  0.27383997  0.80199911  0.55389089     0.12800
C2266       C  0.30562755  0.80957052  0.51228157     0.62400
F2267       F  0.20468152  0.73354636  0.49426255    -0.22800
F2268       F  0.18608000  0.76465272  0.51897513    -0.20100
F2269       F  0.20834696  0.73116774  0.53782463    -0.19800
F2270       F  0.30323766  0.82819203  0.49271401    -0.19900
F2271       F  0.32727506  0.79388476  0.50742420    -0.20200
F2272       F  0.31015674  0.82268125  0.53564260    -0.22900
C2273       C  0.21354589  0.67305189  0.64330626    -0.05700
C2274       C  0.22587931  0.67471048  0.66800288     0.00200
C2275       C  0.23251980  0.69968870  0.67818010    -0.08300
C2276       C  0.22652376  0.72202542  0.66311749    -0.05700
C2277       C  0.21416298  0.72042227  0.63839516     0.00200
C2278       C  0.20737285  0.69545809  0.62832997    -0.08300
C2279       C  0.19459761  0.69225236  0.60161941     0.62100
H2280       H  0.20863767  0.65384084  0.63577542     0.12800
H2281       H  0.23135648  0.74121784  0.67078582     0.12800
C2282       C  0.24656177  0.70296923  0.70434407     0.62400
F2283       F  0.19195248  0.66615229  0.59466181    -0.22800
F2284       F  0.20995055  0.70435568  0.58280410    -0.20100
F2285       F  0.16976064  0.70334426  0.60179102    -0.19800
F2286       F  0.26930899  0.68809226  0.70461966    -0.19900
F2287       F  0.23025567  0.69509394  0.72458897    -0.20200
F2288       F  0.25360101  0.72878081  0.70896092    -0.22900
C2289       C  0.15614498  0.83258948  0.67810560    -0.05700
C2290       C  0.15730097  0.80682509  0.66866288     0.00200
C2291       C  0.14219885  0.78691656  0.68079491    -0.08300
C2292       C  0.12680900  0.79347457  0.70267090    -0.05700
C2293       C  0.12593382  0.81912325  0.71261372     0.00200
C2294       C  0.14048138  0.83924183  0.69992802    -0.08300
C2295       C  0.14027816  0.86731589  0.70978715     0.62100
H2296       H  0.16763388  0.84746787  0.66814426     0.12800
H2297       H  0.11567370  0.77835604  0.71266349     0.12800
C2298       C  0.14322451  0.75863371  0.67142594     0.62400
F2299       F  0.15650525  0.88337707  0.69500662    -0.22800
F2300       F  0.14895381  0.86811423  0.73550940    -0.20100
F2301       F  0.11501197  0.87731037  0.70834417    -0.19800
F2302       F  0.12933937  0.74198662  0.68782960    -0.19900
F2303       F  0.16905937  0.75013830  0.67078307    -0.20200
F2304       F  0.13242582  0.75670043  0.64658598    -0.22900
C2305       C  0.75985483  0.00538443  0.77056179    -0.05700
C2306       C  0.76432047  0.00672147  0.74343427     0.00200
C2307       C  0.76902309  0.03163638  0.73177168    -0.08300
C2308       C  0.77130307  0.05379924  0.74820913    -0.05700
C2309       C  0.76825353  0.05223149  0.77563206     0.00200
C2310       C  0.76123867  0.02753827  0.78692814    -0.08300
C2311       C  0.75545299  0.02384692  0.81605895     0.62100
H2312       H  0.75545712  0.98641594  0.77903036     0.12800
H2313       H  0.77581982  0.07268538  0.73963629     0.12800
C2314       C  0.77208948  0.03507580  0.70228278     0.62400
F2315       F  0.74799837  0.99839966  0.82197497    -0.22800
F2316       F  0.73494888  0.04008334  0.82349660    -0.20100
F2317       F  0.77768147  0.02940725  0.83071872    -0.19800
F2318       F  0.74910940  0.02758167  0.68980361    -0.19900
F2319       F  0.79286461  0.02002347  0.69328976    -0.20200
F2320       F  0.77703450  0.06088633  0.69543588    -0.22900
C2321       C  0.77356898  0.75966375  0.51670667    -0.05700
C2322       C  0.75813945  0.75704166  0.53958946     0.00200
C2323       C  0.73042098  0.75445125  0.53674326    -0.08300
C2324       C  0.71952236  0.75435577  0.51124057    -0.05700
C2325       C  0.73511502  0.75585031  0.48839819     0.00200
C2326       C  0.76277813  0.75871368  0.49122817    -0.08300
C2327       C  0.78120121  0.76034529  0.46773684     0.62100
H2328       H  0.79467586  0.76146423  0.51882315     0.12800
H2329       H  0.69849005  0.75190722  0.50897155     0.12800
C2330       C  0.71218495  0.75127822  0.56018046     0.62400
F2331       F  0.80674558  0.76631513  0.47507984    -0.22800
F2332       F  0.77275680  0.77972391  0.45066896    -0.20100
F2333       F  0.78180529  0.73646508  0.45489827    -0.19800
F2334       F  0.71584297  0.77176258  0.57758013    -0.19900
F2335       F  0.71731631  0.72768941  0.57259301    -0.20200
F2336       F  0.68592725  0.75124702  0.55287132    -0.22900
C2337       C  0.77433123  0.82212092  0.66129735    -0.05700
C2338       C  0.78453010  0.82321912  0.63567017     0.00200
C2339       C  0.79002603  0.84786897  0.62420523    -0.08300
C2340       C  0.78551849  0.87062773  0.63922308    -0.05700
C2341       C  0.77626836  0.86942723  0.66530563     0.00200
C2342       C  0.77014913  0.84466117  0.67645256    -0.08300
C2343       C  0.75912256  0.84160207  0.70407138     0.62100
H2344       H  0.77039547  0.80308150  0.66985397     0.12800
H2345       H  0.78997460  0.88963219  0.63085341     0.12800
C2346       C  0.80028416  0.85023997  0.59631804     0.62400
F2347       F  0.75128173  0.81610688  0.70919897    -0.22800
F2348       F  0.73735259  0.85757173  0.70724110    -0.20100
F2349       F  0.77816715  0.84814995  0.72232192    -0.19800
F2350       F  0.78433945  0.83617012  0.57940269    -0.19900
F2351       F  0.82569950  0.84062130  0.59503753    -0.20200
F2352       F  0.80066347  0.87603047  0.58782565    -0.22900
C2353       C  0.76297402  0.78297971  0.98592431    -0.05700
C2354       C  0.73532001  0.78242656  0.98727368     0.00200
C2355       C  0.72323033  0.77854054  0.01222293    -0.08300
C2356       C  0.73924180  0.77820628  0.03484351    -0.05700
C2357       C  0.76675490  0.78063026  0.03355586     0.00200
C2358       C  0.77900768  0.78178947  0.00845502    -0.08300
C2359       C  0.80876265  0.78245685  0.00506645     0.62100
H2360       H  0.77212406  0.78487438  0.96683648     0.12800
H2361       H  0.73022430  0.77641409  0.05401858     0.12800
C2362       C  0.69368641  0.77503459  0.01546635     0.62400
F2363       F  0.81610671  0.78401824  0.97892636    -0.22800
F2364       F  0.81967910  0.75975553  0.01522621    -0.20100
F2365       F  0.81910357  0.80406928  0.01779984    -0.19800
F2366       F  0.68527489  0.75399483  0.00053159    -0.19900
F2367       F  0.68068754  0.79758671  0.00771702    -0.20200
F2368       F  0.68674561  0.76997531  0.04127283    -0.22900
C2369       C  0.50054383  0.80720603  0.74816118    -0.05700
C2370       C  0.52428142  0.79353603  0.75218776     0.00200
C2371       C  0.52328264  0.76666224  0.75903286    -0.08300
C2372       C  0.49867231  0.75399719  0.75924868    -0.05700
C2373       C  0.47498195  0.76717119  0.75310539     0.00200
C2374       C  0.47584989  0.79467789  0.74871760    -0.08300
C2375       C  0.45118533  0.81102495  0.74445116     0.62100
H2376       H  0.50151586  0.82790307  0.74354141     0.12800
H2377       H  0.49805517  0.73319298  0.76336285     0.12800
C2378       C  0.54787789  0.75130839  0.76629701     0.62400
F2379       F  0.45662496  0.83761848  0.74402397    -0.22800
F2380       F  0.43356046  0.80658364  0.76468243    -0.20100
F2381       F  0.43970728  0.80461328  0.72068646    -0.19800
F2382       F  0.56228925  0.76501751  0.78481004    -0.19900
F2383       F  0.56311603  0.74722682  0.74418664    -0.20200
F2384       F  0.54183183  0.72704691  0.77691555    -0.22900
C2385       C  0.62868690  0.82595830  0.85693065    -0.05700
C2386       C  0.65525860  0.81826104  0.85448565     0.00200
C2387       C  0.66636133  0.81578182  0.82898363    -0.08300
C2388       C  0.65017388  0.82035283  0.80712019    -0.05700
C2389       C  0.62358750  0.82750986  0.80955061     0.00200
C2390       C  0.61264012  0.83087159  0.83482501    -0.08300
C2391       C  0.58408899  0.83876743  0.83842317     0.62100
H2392       H  0.62049066  0.82806222  0.87643861     0.12800
H2393       H  0.65830227  0.81839359  0.78755763     0.12800
C2394       C  0.69490835  0.80789181  0.82438256     0.62400
F2395       F  0.57690267  0.83914294  0.86464109    -0.22800
F2396       F  0.56792188  0.82116859  0.82551709    -0.20100
F2397       F  0.58013545  0.86361962  0.82829708    -0.19800
F2398       F  0.70027724  0.78446334  0.83694150    -0.19900
F2399       F  0.71147010  0.82723118  0.83378220    -0.20200
F2400       F  0.70048671  0.80447560  0.79798492    -0.22900
C2401       C  0.65598225  0.90373046  0.73714538    -0.05700
C2402       C  0.65217768  0.88149262  0.72120983     0.00200
C2403       C  0.66902083  0.87724732  0.69940139    -0.08300
C2404       C  0.68949685  0.89516643  0.69481812    -0.05700
C2405       C  0.69438731  0.91605371  0.71196238     0.00200
C2406       C  0.67727434  0.92083977  0.73323623    -0.08300
C2407       C  0.68166989  0.94378991  0.75170776     0.62100
H2408       H  0.64277123  0.90698762  0.75350930     0.12800
H2409       H  0.70329042  0.89175264  0.67895065     0.12800
C2410       C  0.66604119  0.85374113  0.68136958     0.62400
F2411       F  0.66118734  0.94656545  0.76942463    -0.22800
F2412       F  0.68359315  0.96674083  0.73734751    -0.20100
F2413       F  0.70462415  0.94016492  0.76583270    -0.19800
F2414       F  0.64060077  0.85255309  0.67176267    -0.19900
F2415       F  0.67174572  0.83102846  0.69509203    -0.20200
F2416       F  0.68298874  0.85502751  0.66011246    -0.22900
C2417       C  0.97935772  0.79271103  0.78001628    -0.05700
C2418       C  0.97802287  0.76606694  0.77315987     0.00200
C2419       C  0.00147293  0.75334193  0.76440081    -0.08300
C2420       C  0.02547645  0.76727549  0.76520117    -0.05700
C2421       C  0.02681463  0.79350851  0.77334733     0.00200
C2422       C  0.00314123  0.80677215  0.78013880    -0.08300
C2423       C  0.00273199  0.83540735  0.78852726     0.62100
H2424       H  0.96146523  0.80253409  0.78598742     0.12800
H2425       H  0.04363523  0.75762978  0.75966070     0.12800
C2426       C  0.00165803  0.72533055  0.75418652     0.62400
F2427       F  0.97789765  0.84352797  0.79622650    -0.22800
F2428       F  0.01037515  0.85114042  0.76775411    -0.20100
F2429       F  0.01953452  0.83910607  0.80957187    -0.19800
F2430       F  0.98319020  0.72266019  0.73439041    -0.19900
F2431       F  0.99611102  0.70805685  0.77438520    -0.20200
F2432       F  0.02588497  0.71842598  0.74381306    -0.22900
C2433       C  0.84547464  0.71834660  0.68464859    -0.05700
C2434       C  0.84434693  0.74299130  0.67249806     0.00200
C2435       C  0.85957494  0.76393074  0.68270616    -0.08300
C2436       C  0.87526590  0.75942544  0.70505939    -0.05700
C2437       C  0.87645502  0.73478530  0.71734240     0.00200
C2438       C  0.86135016  0.71375362  0.70693261    -0.08300
C2439       C  0.86101362  0.68687940  0.71978835     0.62100
H2440       H  0.83379593  0.70262655  0.67638599     0.12800
H2441       H  0.88659355  0.77534654  0.71341776     0.12800
C2442       C  0.85839652  0.79123830  0.67079394     0.62400
F2443       F  0.84390066  0.66986924  0.70726928    -0.22800
F2444       F  0.85299467  0.68911282  0.74561040    -0.20100
F2445       F  0.88589258  0.67592707  0.71890798    -0.19800
F2446       F  0.83254661  0.79964456  0.66975647    -0.19900
F2447       F  0.86880675  0.79093385  0.64572458    -0.20200
F2448       F  0.87252510  0.80927573  0.68540446    -0.22900
C2449       C  0.73767131  0.55009477  0.75291121    -0.05700
C2450       C  0.74894620  0.55149332  0.77812442     0.00200
C2451       C  0.76113788  0.52858194  0.78862019    -0.08300
C2452       C  0.75977879  0.50493571  0.77424968    -0.05700
C2453       C  0.74742302  0.50346709  0.74964898     0.00200
C2454       C  0.73664692  0.52661953  0.73844433    -0.08300
C2455       C  0.72298365  0.52656484  0.71183965     0.62100
H2456       H  0.72873874  0.56755755  0.74476115     0.12800
H2457       H  0.76820441  0.48714840  0.78230456     0.12800
C2458       C  0.77561733  0.52868172  0.81471851     0.62400
F2459       F  0.71147103  0.55051934  0.70612612    -0.22800
F2460       F  0.70334240  0.50779852  0.71153965    -0.20100
F2461       F  0.74106736  0.52126188  0.69226516    -0.19800
F2462       F  0.75780986  0.53114262  0.83509461    -0.19900
F2463       F  0.79334372  0.54924558  0.81538667    -0.20200
F2464       F  0.78967381  0.50573500  0.81864624    -0.22900
C2465       C  0.79691332  0.68169335  0.80768078    -0.05700
C2466       C  0.80069251  0.65565468  0.81595268     0.00200
C2467       C  0.82613588  0.64702007  0.82303150    -0.08300
C2468       C  0.84735865  0.66430730  0.81930402    -0.05700
C2469       C  0.84375742  0.68987318  0.80940760     0.00200
C2470       C  0.81794451  0.69918717  0.80449834    -0.08300
C2471       C  0.81239705  0.72699834  0.79519201     0.62100
H2472       H  0.77706846  0.68820327  0.80340087     0.12800
H2473       H  0.86716293  0.65777747  0.82370817     0.12800
C2474       C  0.83101615  0.61962689  0.83361123     0.62400
F2475       F  0.78583172  0.73125499  0.79080101    -0.22800
F2476       F  0.82553221  0.73182737  0.77190054    -0.20100
F2477       F  0.82054751  0.74467942  0.81409003    -0.19800
F2478       F  0.82137515  0.60122700  0.81616128    -0.19900
F2479       F  0.81855399  0.61675101  0.85757814    -0.20200
F2480       F  0.85756485  0.61470157  0.83731910    -0.22900
C2481       C  0.71770828  0.68318467  0.88641139    -0.05700
C2482       C  0.70967288  0.68175920  0.85988397     0.00200
C2483       C  0.69509399  0.70306483  0.84901767    -0.08300
C2484       C  0.69142601  0.72569237  0.86432899    -0.05700
C2485       C  0.70113307  0.72751500  0.88992738     0.00200
C2486       C  0.71336333  0.70573226  0.90172986    -0.08300
C2487       C  0.72165329  0.70657278  0.93033604     0.62100
H2488       H  0.72803265  0.66672461  0.89503012     0.12800
H2489       H  0.68127197  0.74252134  0.85624285     0.12800
C2490       C  0.68315587  0.70232452  0.82164201     0.62400
F2491       F  0.73218253  0.68292109  0.93858826    -0.22800
F2492       F  0.69997176  0.71206108  0.94582924    -0.20100
F2493       F  0.74036469  0.72591266  0.93397088    -0.19800
F2494       F  0.66812025  0.67989699  0.81876020    -0.19900
F2495       F  0.70288054  0.70278299  0.80294017    -0.20200
F2496       F  0.66687536  0.72362443  0.81700467    -0.22900
C2497       C  0.89052193  0.93158941  0.68862367    -0.05700
C2498       C  0.90087485  0.95699177  0.69095231     0.00200
C2499       C  0.88369568  0.97843980  0.69595795    -0.08300
C2500       C  0.85656362  0.97365234  0.69767972    -0.05700
C2501       C  0.84637219  0.94839998  0.69495332     0.00200
C2502       C  0.86336752  0.92687795  0.69047872    -0.08300
C2503       C  0.85275234  0.89927011  0.68682754     0.62100
H2504       H  0.90383538  0.91550062  0.68457534     0.12800
H2505       H  0.84298938  0.98964071  0.70130937     0.12800
C2506       C  0.89365485  0.00625642  0.69977782     0.62400
F2507       F  0.87235176  0.88174477  0.67981870    -0.22800
F2508       F  0.83398135  0.89920423  0.66717247    -0.20100
F2509       F  0.84150491  0.89054665  0.70995122    -0.19800
F2510       F  0.90122208  0.01667133  0.67587130    -0.19900
F2511       F  0.91481334  0.00635141  0.71688748    -0.20200
F2512       F  0.87441705  0.02241146  0.71023824    -0.22900
C2513       C  0.17824760  0.90154303  0.55351767    -0.05700
C2514       C  0.17921166  0.91939049  0.57469421     0.00200
C2515       C  0.18508448  0.90986155  0.60023499    -0.08300
C2516       C  0.18886737  0.88279737  0.60361273    -0.05700
C2517       C  0.18711402  0.86507020  0.58262717     0.00200
C2518       C  0.18228187  0.87445910  0.55702273    -0.08300
C2519       C  0.18212304  0.85612742  0.53355563     0.62100
H2520       H  0.17407390  0.90896236  0.53402871     0.12800
H2521       H  0.19307184  0.87505761  0.62298802     0.12800
C2522       C  0.18686753  0.92773066  0.62404480     0.62400
F2523       F  0.17975763  0.86966829  0.51009133    -0.22800
F2524       F  0.16116552  0.83897057  0.53551278    -0.20100
F2525       F  0.20537329  0.84199850  0.53278238    -0.19800
F2526       F  0.16335279  0.94100389  0.62739529    -0.19900
F2527       F  0.20716594  0.94546882  0.62063043    -0.20200
F2528       F  0.19187566  0.91389925  0.64691993    -0.22900
C2529       C  0.08844231  0.99329062  0.62757903    -0.05700
C2530       C  0.09087422  0.97773964  0.60481696     0.00200
C2531       C  0.07229112  0.95746720  0.60027645    -0.08300
C2532       C  0.05159882  0.95405455  0.61842959    -0.05700
C2533       C  0.04883207  0.97035853  0.64045227     0.00200
C2534       C  0.06756805  0.99009888  0.64535875    -0.08300
C2535       C  0.06539653  0.00763833  0.66934611     0.62100
H2536       H  0.10276374  0.00860732  0.63107611     0.12800
H2537       H  0.03659819  0.93938056  0.61490028     0.12800
C2538       C  0.07416502  0.93948433  0.57661858     0.62400
F2539       F  0.08718392  0.02368298  0.67212060    -0.22800
F2540       F  0.06330758  0.99235046  0.69170402    -0.20100
F2541       F  0.04336992  0.02343676  0.66729179    -0.19800
F2542       F  0.09875838  0.92784432  0.57581946    -0.19900
F2543       F  0.07010187  0.95375402  0.55387336    -0.20200
F2544       F  0.05550166  0.91972625  0.57745558    -0.22900
C2545       C  0.06121653  0.17470973  0.62528714    -0.05700
C2546       C  0.06639368  0.19612538  0.60873992     0.00200
C2547       C  0.07347291  0.22049764  0.61978743    -0.08300
C2548       C  0.07649831  0.22216545  0.64711344    -0.05700
C2549       C  0.07254000  0.20045751  0.66381347     0.00200
C2550       C  0.06402770  0.17631924  0.65272841    -0.08300
C2551       C  0.05818998  0.15219117  0.66928043     0.62100
H2552       H  0.05536047  0.15636008  0.61634241     0.12800
H2553       H  0.08232380  0.24071221  0.65561196     0.12800
C2554       C  0.07690732  0.24487422  0.60303151     0.62400
F2555       F  0.05011191  0.13114879  0.65412323    -0.22800
F2556       F  0.03818585  0.15771349  0.68685482    -0.20100
F2557       F  0.08057110  0.14457658  0.68275935    -0.19800
F2558       F  0.05457687  0.24871012  0.58795955    -0.19900
F2559       F  0.09858810  0.24203682  0.58689332    -0.20200
F2560       F  0.08068992  0.26712859  0.61811449    -0.22900
C2561       C  0.08638691  0.09143744  0.53092660    -0.05700
C2562       C  0.09713808  0.11368433  0.54284177     0.00200
C2563       C  0.12067689  0.11137420  0.55766709    -0.08300
C2564       C  0.13266203  0.08656413  0.55989404    -0.05700
C2565       C  0.12214542  0.06424018  0.54762081     0.00200
C2566       C  0.09838871  0.06669001  0.53284152    -0.08300
C2567       C  0.08511810  0.04353076  0.51941243     0.62100
H2568       H  0.06848669  0.09377491  0.51960049     0.12800
H2569       H  0.15064890  0.08447971  0.57111479     0.12800
C2570       C  0.13286254  0.13474293  0.57158834     0.62400
F2571       F  0.06108446  0.05030291  0.50849001    -0.22800
F2572       F  0.08055514  0.02375848  0.53745851    -0.20100
F2573       F  0.10091043  0.03430837  0.49931680    -0.19800
F2574       F  0.11411733  0.14713946  0.58688829    -0.19900
F2575       F  0.14268458  0.15220942  0.55327831    -0.20200
F2576       F  0.15340965  0.12734756  0.58786379    -0.22900
C2577       C  0.95348145  0.86191590  0.39377656    -0.05700
C2578       C  0.94391283  0.84339640  0.41190299     0.00200
C2579       C  0.93176670  0.82027893  0.40263606    -0.08300
C2580       C  0.92931905  0.81683242  0.37541540    -0.05700
C2581       C  0.93785670  0.83585399  0.35711512     0.00200
C2582       C  0.95052844  0.85881054  0.36651766    -0.08300
C2583       C  0.96050743  0.88031556  0.34837586     0.62100
H2584       H  0.96270557  0.87951184  0.40127260     0.12800
H2585       H  0.91980853  0.79924836  0.36831647     0.12800
C2586       C  0.92133374  0.79928142  0.42112476     0.62400
F2587       F  0.97299803  0.90022205  0.36201637    -0.22800
F2588       F  0.93961605  0.89137892  0.33490496    -0.20100
F2589       F  0.97848750  0.87000519  0.33079330    -0.19800
F2590       F  0.89985739  0.80888037  0.43475965    -0.19900
F2591       F  0.94078060  0.79185745  0.43865241    -0.20200
F2592       F  0.91328341  0.77705515  0.40776549    -0.22900
C2593       C  0.96434782  0.92227486  0.55704585    -0.05700
C2594       C  0.95823019  0.89549720  0.55895290     0.00200
C2595       C  0.95313129  0.88426166  0.58377169    -0.08300
C2596       C  0.95509934  0.90036884  0.60608967    -0.05700
C2597       C  0.96184056  0.92713450  0.60426740     0.00200
C2598       C  0.96618449  0.93846120  0.57918761    -0.08300
C2599       C  0.97338910  0.96717615  0.57547214     0.62100
H2600       H  0.96760467  0.93054265  0.53771764     0.12800
H2601       H  0.95160021  0.89200446  0.62532367     0.12800
C2602       C  0.94665033  0.85537273  0.58680515     0.62400
F2603       F  0.97795959  0.97332992  0.54937760    -0.22800
F2604       F  0.99607366  0.97290725  0.58934891    -0.20100
F2605       F  0.95297322  0.98289435  0.58413024    -0.19800
F2606       F  0.96599599  0.84037470  0.57497576    -0.19900
F2607       F  0.92263768  0.85007807  0.57520276    -0.20200
F2608       F  0.94510893  0.84799438  0.61293418    -0.22900
C2609       C  0.84402953  0.13992717  0.46722360    -0.05700
C2610       C  0.82948059  0.12264689  0.45126379     0.00200
C2611       C  0.81034795  0.13305024  0.43384818    -0.08300
C2612       C  0.80763452  0.16040656  0.43216879    -0.05700
C2613       C  0.82325053  0.17769096  0.44706937     0.00200
C2614       C  0.84131435  0.16725777  0.46556590    -0.08300
C2615       C  0.85786721  0.18448491  0.48350880     0.62100
H2616       H  0.85843990  0.13187827  0.48064891     0.12800
H2617       H  0.79373454  0.16852636  0.41825474     0.12800
C2618       C  0.79288363  0.11576903  0.41689502     0.62400
F2619       F  0.87111924  0.16996927  0.50232904    -0.22800
F2620       F  0.84188363  0.20217963  0.49654565    -0.20100
F2621       F  0.87650124  0.19782542  0.46890331    -0.19800
F2622       F  0.78039529  0.09727304  0.43235747    -0.19900
F2623       F  0.80792666  0.10338215  0.39797562    -0.20200
F2624       F  0.77356321  0.13006026  0.40409406    -0.22900
C2625       C  0.87419567  0.95876988  0.48546480    -0.05700
C2626       C  0.87898678  0.97350913  0.46276096     0.00200
C2627       C  0.89858082  0.96513079  0.44478336    -0.08300
C2628       C  0.91269614  0.94199854  0.45024668    -0.05700
C2629       C  0.90812663  0.92743064  0.47314862     0.00200
C2630       C  0.88844826  0.93580431  0.49110765    -0.08300
C2631       C  0.88332815  0.92146237  0.51677876     0.62100
H2632       H  0.85955893  0.96590762  0.49917970     0.12800
H2633       H  0.92792455  0.93537232  0.43692297     0.12800
C2634       C  0.90603392  0.98152500  0.42106825     0.62400
F2635       F  0.86601191  0.93504067  0.53276858    -0.22800
F2636       F  0.90664598  0.91842604  0.53044373    -0.20100
F2637       F  0.87250314  0.89712692  0.51174459    -0.19800
F2638       F  0.91604783  0.00522118  0.42946804    -0.19900
F2639       F  0.88420217  0.98586480  0.40546045    -0.20200
F2640       F  0.92503569  0.96942061  0.40580522    -0.22900
C2641       C  0.14492651  0.11848288  0.32260302    -0.05700
C2642       C  0.16121832  0.09627262  0.32333686     0.00200
C2643       C  0.15000279  0.07103741  0.32435360    -0.08300
C2644       C  0.12251276  0.06893971  0.32623470    -0.05700
C2645       C  0.10606346  0.09120404  0.32693813     0.00200
C2646       C  0.11738989  0.11651310  0.32442875    -0.08300
C2647       C  0.10089691  0.14138024  0.32445189     0.62100
H2648       H  0.15414418  0.13757277  0.32105571     0.12800
H2649       H  0.11363654  0.04969518  0.32769810     0.12800
C2650       C  0.16694275  0.04656074  0.32284322     0.62400
F2651       F  0.11627984  0.16371307  0.32261134    -0.22800
F2652       F  0.08656407  0.14300233  0.34748411    -0.20100
F2653       F  0.08395967  0.14121975  0.30318622    -0.19800
F2654       F  0.18314418  0.04515844  0.34460367    -0.19900
F2655       F  0.18222742  0.04733528  0.30036980    -0.20200
F2656       F  0.15188576  0.02396041  0.32204147    -0.22900
C2657       C  0.96287895  0.07157155  0.41080170    -0.05700
C2658       C  0.96062054  0.07041277  0.38341098     0.00200
C2659       C  0.93586820  0.06590039  0.37182504    -0.08300
C2660       C  0.91386741  0.06272284  0.38837732    -0.05700
C2661       C  0.91598937  0.06333647  0.41608688     0.00200
C2662       C  0.94114466  0.06803835  0.42751705    -0.08300
C2663       C  0.94564444  0.06886258  0.45703895     0.62100
H2664       H  0.98223733  0.07501267  0.41904302     0.12800
H2665       H  0.89482458  0.05908459  0.37958996     0.12800
C2666       C  0.93309781  0.06303099  0.34229417     0.62400
F2667       F  0.97178120  0.07331052  0.46334230    -0.22800
F2668       F  0.93853186  0.04514646  0.46815896    -0.20100
F2669       F  0.93099757  0.08893834  0.46798091    -0.19800
F2670       F  0.94858462  0.04241678  0.33373184    -0.19900
F2671       F  0.94109580  0.08582173  0.32995525    -0.20200
F2672       F  0.90735065  0.05805181  0.33492850    -0.22900
C2673       C  0.07171678  0.13856157  0.45079175    -0.05700
C2674       C  0.05244779  0.15718940  0.45721664     0.00200
C2675       C  0.03075231  0.16107387  0.44026022    -0.08300
C2676       C  0.02838282  0.14506940  0.41790478    -0.05700
C2677       C  0.04662415  0.12505234  0.41245266     0.00200
C2678       C  0.06914877  0.12219064  0.42869066    -0.08300
C2679       C  0.09041219  0.10207886  0.42284580     0.62100
H2680       H  0.08810660  0.13587620  0.46415097     0.12800
H2681       H  0.01154027  0.14737227  0.40505904     0.12800
C2682       C  0.01025329  0.18202853  0.44578022     0.62400
F2683       F  0.11219276  0.10531627  0.43886384    -0.22800
F2684       F  0.09864625  0.10454218  0.39706246    -0.20100
F2685       F  0.08071904  0.07708938  0.42694627    -0.19800
F2686       F  0.02257246  0.20577229  0.45035750    -0.19900
F2687       F  0.99556014  0.17519497  0.46757008    -0.20200
F2688       F  0.99316682  0.18528351  0.42484139    -0.22900
C2689       C  0.89729906  0.08500688  0.86103290    -0.05700
C2690       C  0.91374449  0.08356695  0.83896836     0.00200
C2691       C  0.90275818  0.08329464  0.81354339    -0.08300
C2692       C  0.87537384  0.08616153  0.81103394    -0.05700
C2693       C  0.85882564  0.08883711  0.83308832     0.00200
C2694       C  0.86987971  0.08765833  0.85864570    -0.08300
C2695       C  0.85321179  0.08997234  0.88329412     0.62100
H2696       H  0.90630872  0.08434593  0.88031244     0.12800
H2697       H  0.86665320  0.08677040  0.79163172     0.12800
C2698       C  0.91976147  0.07917925  0.78937003     0.62400
F2699       F  0.86833413  0.08899021  0.90590574    -0.22800
F2700       F  0.83544661  0.06946787  0.88430869    -0.20100
F2701       F  0.83979469  0.11357412  0.88323269    -0.19800
F2702       F  0.93351082  0.05587294  0.79172922    -0.19900
F2703       F  0.93740101  0.09964082  0.78680144    -0.20200
F2704       F  0.90485890  0.07796187  0.76663509    -0.22900
C2705       C  0.00380895  0.02577940  0.74088334    -0.05700
C2706       C  0.99127811  0.00133376  0.74077661     0.00200
C2707       C  0.98167544  0.99084934  0.76476431    -0.08300
C2708       C  0.98452747  0.00565350  0.78791464    -0.05700
C2709       C  0.99629913  0.03060931  0.78806674     0.00200
C2710       C  0.00676930  0.04064721  0.76403311    -0.08300
C2711       C  0.02096191  0.06684257  0.76225406     0.62100
H2712       H  0.01105346  0.03332327  0.72235839     0.12800
H2713       H  0.97676145  0.99797820  0.80614531     0.12800
C2714       C  0.96731919  0.96471976  0.76594005     0.62400
F2715       F  0.03211237  0.07081413  0.73775120    -0.22800
F2716       F  0.04106071  0.06775446  0.78056631    -0.20100
F2717       F  0.00340147  0.08709797  0.76664621    -0.19800
F2718       F  0.98447457  0.94459222  0.75979632    -0.19900
F2719       F  0.94654136  0.96477227  0.74838542    -0.20200
F2720       F  0.95717734  0.95969715  0.79067353    -0.22900
C2721       C  0.18902523  0.13080434  0.96475749    -0.05700
C2722       C  0.19240444  0.11356398  0.94334818     0.00200
C2723       C  0.19826993  0.12412426  0.91819030    -0.08300
C2724       C  0.19869927  0.15153385  0.91528911    -0.05700
C2725       C  0.19429813  0.16857936  0.93650380     0.00200
C2726       C  0.19026655  0.15818112  0.96185489    -0.08300
C2727       C  0.18835912  0.17579362  0.98580599     0.62100
H2728       H  0.18520171  0.12264658  0.98401257     0.12800
H2729       H  0.20249265  0.16004557  0.89616703     0.12800
C2730       C  0.20409219  0.10701001  0.89440416     0.62400
F2731       F  0.18714894  0.16149150  0.00889465    -0.22800
F2732       F  0.16595666  0.19110337  0.98425197    -0.20100
F2733       F  0.21028874  0.19182551  0.98707420    -0.19800
F2734       F  0.20950804  0.12177877  0.87222707    -0.19900
F2735       F  0.18273930  0.09124015  0.88866679    -0.20200
F2736       F  0.22588032  0.09153283  0.89945931    -0.22900
C2737       C  0.09755417  0.03205362  0.89767091    -0.05700
C2738       C  0.10890789  0.05333151  0.91078056     0.00200
C2739       C  0.09933391  0.07899223  0.90625123    -0.08300
C2740       C  0.07767968  0.08233312  0.88934844    -0.05700
C2741       C  0.06461340  0.06073616  0.87839811     0.00200
C2742       C  0.07536194  0.03523535  0.88158337    -0.08300
C2743       C  0.06317219  0.01115222  0.86897564     0.62100
H2744       H  0.10566023  0.01265197  0.90086186     0.12800
H2745       H  0.06961123  0.10171033  0.88614323     0.12800
C2746       C  0.11162758  0.10258613  0.91954503     0.62400
F2747       F  0.08150036  0.99122173  0.86632741    -0.22800
F2748       F  0.05372398  0.01701451  0.84416044    -0.20100
F2749       F  0.04276021  0.00210237  0.88447922    -0.19800
F2750       F  0.13811435  0.10366549  0.91372129    -0.19900
F2751       F  0.10848033  0.10059597  0.94643501    -0.20200
F2752       F  0.10024458  0.12586579  0.91134771    -0.22900
C2753       C  0.05880361  0.82346037  0.87299182    -0.05700
C2754       C  0.07783177  0.83919043  0.86072530     0.00200
C2755       C  0.09415695  0.85569483  0.87595207    -0.08300
C2756       C  0.09154698  0.85526310  0.90328114    -0.05700
C2757       C  0.07267678  0.83958902  0.91556624     0.00200
C2758       C  0.05540579  0.82396499  0.90042662    -0.08300
C2759       C  0.03379433  0.80792235  0.91325489     0.62100
H2760       H  0.04668880  0.81083304  0.86090120     0.12800
H2761       H  0.10402296  0.86755192  0.91537686     0.12800
C2762       C  0.11496118  0.87289905  0.86347277     0.62400
F2763       F  0.02065273  0.79241194  0.89521021    -0.22800
F2764       F  0.01562837  0.82448918  0.92480200    -0.20100
F2765       F  0.04447360  0.79173399  0.93228925    -0.19800
F2766       F  0.10356075  0.88883009  0.84465705    -0.19900
F2767       F  0.13383671  0.85716216  0.85203958    -0.20200
F2768       F  0.12730601  0.88888550  0.88165414    -0.22900
C2769       C  0.11895198  0.96256624  0.94946946    -0.05700
C2770       C  0.14198242  0.96623183  0.96415196     0.00200
C2771       C  0.14963067  0.94733846  0.98285455    -0.08300
C2772       C  0.13393370  0.92487954  0.98602979    -0.05700
C2773       C  0.10989037  0.92174239  0.97253530     0.00200
C2774       C  0.10235979  0.94083548  0.95361336    -0.08300
C2775       C  0.07703469  0.93864702  0.93791234     0.62100
H2776       H  0.11338657  0.97768677  0.93558941     0.12800
H2777       H  0.13981482  0.91012859  0.00015443     0.12800
C2778       C  0.17375476  0.95146229  0.99993612     0.62400
F2779       F  0.07586331  0.91452272  0.92559155    -0.22800
F2780       F  0.07526514  0.95782965  0.91873262    -0.20100
F2781       F  0.05564385  0.94151254  0.95444882    -0.19800
F2782       F  0.16984052  0.97294214  0.01602843    -0.19900
F2783       F  0.19556152  0.95587126  0.98429688    -0.20200
F2784       F  0.17888015  0.92993452  0.01571704    -0.22900
C2785       C  0.15291935  0.93857436  0.18195589    -0.05700
C2786       C  0.16208975  0.94367066  0.20737232     0.00200
C2787       C  0.14402491  0.95019636  0.22760743    -0.08300
C2788       C  0.11723417  0.95277638  0.22107816    -0.05700
C2789       C  0.10832656  0.94786333  0.19554588     0.00200
C2790       C  0.12614880  0.93978669  0.17583450    -0.08300
C2791       C  0.11677994  0.93117657  0.14886640     0.62100
H2792       H  0.16690735  0.93264349  0.16703647     0.12800
H2793       H  0.10299496  0.95847770  0.23583642     0.12800
C2794       C  0.15275992  0.95423419  0.25582409     0.62400
F2795       F  0.13712148  0.92131836  0.13369723    -0.22800
F2796       F  0.10579988  0.95214356  0.13560581    -0.20100
F2797       F  0.09822534  0.91157240  0.15169377    -0.19800
F2798       F  0.17370966  0.97151961  0.25676959    -0.19900
F2799       F  0.16026960  0.93044784  0.26652261    -0.20200
F2800       F  0.13271252  0.96435986  0.27119781    -0.22900
C2801       C  0.01641780  0.02862489  0.23724232    -0.05700
C2802       C  0.02073372  0.00155043  0.23981805     0.00200
C2803       C  0.02363585  0.99075111  0.26542350    -0.08300
C2804       C  0.02279471  0.00765582  0.28726158    -0.05700
C2805       C  0.01949645  0.03491960  0.28474220     0.00200
C2806       C  0.01563691  0.04561267  0.25909740    -0.08300
C2807       C  0.01120573  0.07473774  0.25426038     0.62100
H2808       H  0.01401773  0.03650889  0.21764333     0.12800
H2809       H  0.02530846  0.99955270  0.30674169     0.12800
C2810       C  0.02867597  0.96169856  0.27000382     0.62400
F2811       F  0.00763835  0.08038260  0.22788999    -0.22800
F2812       F  0.03279906  0.08888168  0.26278976    -0.20100
F2813       F  0.98885241  0.08294322  0.26741490    -0.19800
F2814       F  0.05075170  0.95384627  0.25618562    -0.19900
F2815       F  0.00706911  0.94731997  0.26195419    -0.20200
F2816       F  0.03301862  0.95600657  0.29624054    -0.22900
C2817       C  0.05390329  0.87335805  0.08549195    -0.05700
C2818       C  0.06431436  0.88716356  0.06418745     0.00200
C2819       C  0.07001308  0.91415382  0.06674644    -0.08300
C2820       C  0.06360875  0.92690704  0.09023224    -0.05700
C2821       C  0.05178029  0.91366900  0.11137236     0.00200
C2822       C  0.04770632  0.88599960  0.10936047    -0.08300
C2823       C  0.03666843  0.86961056  0.13174744     0.62100
H2824       H  0.04977831  0.85269738  0.08285809     0.12800
H2825       H  0.06752939  0.94768041  0.09198092     0.12800
C2826       C  0.08294857  0.92943076  0.04467598     0.62400
F2827       F  0.03444129  0.84340263  0.12503839    -0.22800
F2828       F  0.01184985  0.87841931  0.13848435    -0.20100
F2829       F  0.05321256  0.87115754  0.15326084    -0.19800
F2830       F  0.06640353  0.93046087  0.02316991    -0.19900
F2831       F  0.10619369  0.91718576  0.03781380    -0.20200
F2832       F  0.08880828  0.95493244  0.05190136    -0.22900
C2833       C  0.85187786  0.90300754  0.07790995    -0.05700
C2834       C  0.83092841  0.92083407  0.07996652     0.00200
C2835       C  0.80504207  0.91155149  0.08333207    -0.08300
C2836       C  0.80106042  0.88432857  0.08497175    -0.05700
C2837       C  0.82208228  0.86631116  0.08323763     0.00200
C2838       C  0.84808609  0.87583099  0.07944806    -0.08300
C2839       C  0.87195614  0.85787509  0.07755945     0.62100
H2840       H  0.87152547  0.91074844  0.07503735     0.12800
H2841       H  0.78130268  0.87690626  0.08779595     0.12800
C2842       C  0.78180841  0.93020674  0.08452938     0.62400
F2843       F  0.89522595  0.87178264  0.07500232    -0.22800
F2844       F  0.86964658  0.84182455  0.05580625    -0.20100
F2845       F  0.87393618  0.84275836  0.10001979    -0.19800
F2846       F  0.78152844  0.94599550  0.06242099    -0.19900
F2847       F  0.78380294  0.94573232  0.10667568    -0.20200
F2848       F  0.75807194  0.91693931  0.08565061    -0.22900
C2849       C  0.94861103  0.99076701  0.14686671    -0.05700
C2850       C  0.96075647  0.96620588  0.14484498     0.00200
C2851       C  0.95011362  0.94697820  0.12779756    -0.08300
C2852       C  0.92827223  0.95365080  0.11219099    -0.05700
C2853       C  0.91659868  0.97846835  0.11375635     0.00200
C2854       C  0.92633772  0.99721000  0.13191129    -0.08300
C2855       C  0.91399069  0.02421555  0.13495375     0.62100
H2856       H  0.95714359  0.00510956  0.16003316     0.12800
H2857       H  0.92007752  0.93952779  0.09858104     0.12800
C2858       C  0.96238768  0.92002334  0.12520810     0.62400
F2859       F  0.88896747  0.02190242  0.14534872    -0.22800
F2860       F  0.91262421  0.03653285  0.11082407    -0.20100
F2861       F  0.92844060  0.04011611  0.15160423    -0.19800
F2862       F  0.96187206  0.90740171  0.14924512    -0.19900
F2863       F  0.98808814  0.92248740  0.11674485    -0.20200
F2864       F  0.94905998  0.90450610  0.10730940    -0.22900
C2865       C  0.93915432  0.21953033  0.12013930    -0.05700
C2866       C  0.95153899  0.19573099  0.11436603     0.00200
C2867       C  0.95798971  0.17823725  0.13514338    -0.08300
C2868       C  0.95161548  0.18548038  0.16101015    -0.05700
C2869       C  0.93854552  0.20907024  0.16686267     0.00200
C2870       C  0.93229100  0.22661937  0.14589284    -0.08300
C2871       C  0.91813561  0.25260207  0.14997635     0.62100
H2872       H  0.93446288  0.23251136  0.10396294     0.12800
H2873       H  0.95629094  0.17222239  0.17694362     0.12800
C2874       C  0.97049612  0.15153949  0.13029354     0.62400
F2875       F  0.91601458  0.26691035  0.12694420    -0.22800
F2876       F  0.93189425  0.26779936  0.16774238    -0.20100
F2877       F  0.89287593  0.24810673  0.15905254    -0.19800
F2878       F  0.99573535  0.15468327  0.12065849    -0.19900
F2879       F  0.95557358  0.13750229  0.11247248    -0.20200
F2880       F  0.97219982  0.13675280  0.15305818    -0.22900
C2881       C  0.95353576  0.12018137  0.92914484    -0.05700
C2882       C  0.97932811  0.11692850  0.91993825     0.00200
C2883       C  0.00025353  0.13009539  0.93261856    -0.08300
C2884       C  0.99476152  0.14527868  0.95496848    -0.05700
C2885       C  0.96909287  0.14791138  0.96490646     0.00200
C2886       C  0.94790948  0.13568765  0.95139816    -0.08300
C2887       C  0.91966434  0.13817155  0.96076358     0.62100
H2888       H  0.93780863  0.11032527  0.91872248     0.12800
H2889       H  0.01073795  0.15471647  0.96539594     0.12800
C2890       C  0.02843692  0.12692758  0.92339401     0.62400
F2891       F  0.90241596  0.12418111  0.94506801    -0.22800
F2892       F  0.91207015  0.16420313  0.96010838    -0.20100
F2893       F  0.91749833  0.12868223  0.98611792    -0.19800
F2894       F  0.03095959  0.13620934  0.89800356    -0.19900
F2895       F  0.03511662  0.10067846  0.92419670    -0.20200
F2896       F  0.04601500  0.14053413  0.93906375    -0.22900
C2897       C  0.93037439  0.08730395  0.04570097    -0.05700
C2898       C  0.91973515  0.11097544  0.05444217     0.00200
C2899       C  0.89504193  0.11105543  0.06751465    -0.08300
C2900       C  0.88093619  0.08735578  0.06951436    -0.05700
C2901       C  0.89093969  0.06383387  0.05930377     0.00200
C2902       C  0.91673830  0.06356772  0.04818345    -0.08300
C2903       C  0.93060789  0.03852125  0.03954863     0.62100
H2904       H  0.94945353  0.08766394  0.03621639     0.12800
H2905       H  0.86172546  0.08712682  0.07872202     0.12800
C2906       C  0.88387009  0.13574157  0.07992818     0.62400
F2907       F  0.95687271  0.04279267  0.03366406    -0.22800
F2908       F  0.91873383  0.02853747  0.01727288    -0.20100
F2909       F  0.92978838  0.02018068  0.05950878    -0.19800
F2910       F  0.87569495  0.15293676  0.06058433    -0.19900
F2911       F  0.90282953  0.14768800  0.09530502    -0.20200
F2912       F  0.86247650  0.13027704  0.09585816    -0.22900
C2913       C  0.70935965  0.89032460  0.94551707    -0.05700
C2914       C  0.68678350  0.87425132  0.94482145     0.00200
C2915       C  0.66173272  0.88549729  0.95028783    -0.08300
C2916       C  0.66034809  0.91244904  0.95554224    -0.05700
C2917       C  0.68274154  0.92840700  0.95543511     0.00200
C2918       C  0.70779396  0.91731634  0.95100331    -0.08300
C2919       C  0.73268197  0.93365684  0.95318115     0.62100
H2920       H  0.72839646  0.88154651  0.94175513     0.12800
H2921       H  0.64147244  0.92156197  0.95941049     0.12800
C2922       C  0.63632463  0.86971710  0.94995029     0.62400
F2923       F  0.75513172  0.91861900  0.94987164    -0.22800
F2924       F  0.73384854  0.94514756  0.97775861    -0.20100
F2925       F  0.73275376  0.95303687  0.93419893    -0.19800
F2926       F  0.63692132  0.85097429  0.96958730    -0.19900
F2927       F  0.63323297  0.85775242  0.92577708    -0.20200
F2928       F  0.61439557  0.88528429  0.95421569    -0.22900
C2929       C  0.75851715  0.00903444  0.98918238    -0.05700
C2930       C  0.73612014  0.01139889  0.00534387     0.00200
C2931       C  0.73959763  0.01315398  0.03292720    -0.08300
C2932       C  0.76524579  0.01188400  0.04313254    -0.05700
C2933       C  0.78763174  0.00837387  0.02714908     0.00200
C2934       C  0.78421942  0.00715291  0.99950881    -0.08300
C2935       C  0.80722493  0.00348864  0.98082480     0.62100
H2936       H  0.75565662  0.00752470  0.96817503     0.12800
H2937       H  0.76779382  0.01261677  0.06420734     0.12800
C2938       C  0.71663117  0.01610140  0.05187690     0.62400
F2939       F  0.79958629  0.00552218  0.95479573    -0.22800
F2940       F  0.81809095  0.97887267  0.98439151    -0.20100
F2941       F  0.82607887  0.02249385  0.98541731    -0.19800
F2942       F  0.70204514  0.99322486  0.05238820    -0.19900
F2943       F  0.70083609  0.03679969  0.04418391    -0.20200
F2944       F  0.72494678  0.02108343  0.07728606    -0.22900
C2945       C  0.59516202  0.21885449  0.90950822    -0.05700
C2946       C  0.57287364  0.20457489  0.91719852     0.00200
C2947       C  0.55478718  0.19584022  0.89760737    -0.08300
C2948       C  0.56077645  0.20061449  0.87109198    -0.05700
C2949       C  0.58347262  0.21418187  0.86356699     0.00200
C2950       C  0.60088955  0.22396197  0.88311649    -0.08300
C2951       C  0.62591294  0.23909784  0.87658868     0.62100
H2952       H  0.60844687  0.22595936  0.92449723     0.12800
H2953       H  0.54767592  0.19371870  0.85581244     0.12800
C2954       C  0.52928894  0.18155280  0.90403625     0.62400
F2955       F  0.64098874  0.24415697  0.89866967    -0.22800
F2956       F  0.61949698  0.26300627  0.86544734    -0.20100
F2957       F  0.64131592  0.22475496  0.85941607    -0.19800
F2958       F  0.51395101  0.19681942  0.92046543    -0.19900
F2959       F  0.53481694  0.15780258  0.91594382    -0.20200
F2960       F  0.51450563  0.17635789  0.88178888    -0.22900
C2961       C  0.62341812  0.11430219  0.00328263    -0.05700
C2962       C  0.60623868  0.12153940  0.98296031     0.00200
C2963       C  0.60556671  0.10671484  0.95950892    -0.08300
C2964       C  0.62192331  0.08453155  0.95749388    -0.05700
C2965       C  0.63834574  0.07668634  0.97826783     0.00200
C2966       C  0.63933248  0.09184439  0.00152519    -0.08300
C2967       C  0.65746864  0.08473031  0.02412947     0.62100
H2968       H  0.62390835  0.12624917  0.02085302     0.12800
H2969       H  0.62125583  0.07249000  0.93999150     0.12800
C2970       C  0.58807605  0.11454281  0.93663719     0.62400
F2971       F  0.65804664  0.10412220  0.04312994    -0.22800
F2972       F  0.68281971  0.08134954  0.01483189    -0.20100
F2973       F  0.64900046  0.06184500  0.03595404    -0.19800
F2974       F  0.59377104  0.13995637  0.92903446    -0.19900
F2975       F  0.56194516  0.11297921  0.94402107    -0.20200
F2976       F  0.59169708  0.09836283  0.91511933    -0.22900
C2977       C  0.64889217  0.07613180  0.20637861    -0.05700
C2978       C  0.65962331  0.10125317  0.20499585     0.00200
C2979       C  0.64320004  0.12338844  0.20129343    -0.08300
C2980       C  0.61605391  0.11943637  0.19890266    -0.05700
C2981       C  0.60527062  0.09419863  0.19927401     0.00200
C2982       C  0.62177590  0.07205985  0.20351472    -0.08300
C2983       C  0.61114390  0.04424482  0.20500666     0.62100
H2984       H  0.66201202  0.05969147  0.20957996     0.12800
H2985       H  0.60315894  0.13597800  0.19530854     0.12800
C2986       C  0.65442544  0.15082690  0.19822261     0.62400
F2987       F  0.62961649  0.02700489  0.21514223    -0.22800
F2988       F  0.60446285  0.03562379  0.18015177    -0.20100
F2989       F  0.58924015  0.04341870  0.22112720    -0.19800
F2990       F  0.67222319  0.15100983  0.17771641    -0.19900
F2991       F  0.66692700  0.15847579  0.22106536    -0.20200
F2992       F  0.63507456  0.16915365  0.19269442    -0.22900
C2993       C  0.53659064  0.15481513  0.10827413    -0.05700
C2994       C  0.55161723  0.13201988  0.11251120     0.00200
C2995       C  0.57303962  0.12631309  0.09556693    -0.08300
C2996       C  0.57740379  0.14282747  0.07385339    -0.05700
C2997       C  0.56090390  0.16424499  0.06861480     0.00200
C2998       C  0.54060547  0.17084370  0.08626489    -0.08300
C2999       C  0.52306211  0.19447534  0.08150849     0.62100
H3000       H  0.52069050  0.15932020  0.12169792     0.12800
H3001       H  0.59269352  0.13812871  0.05979147     0.12800
C3002       C  0.59107325  0.10296856  0.10005330     0.62400
F3003       F  0.50638314  0.19911011  0.10249449    -0.22800
F3004       F  0.50779150  0.19046721  0.05940528    -0.20100
F3005       F  0.53845732  0.21653381  0.07783734    -0.19800
F3006       F  0.57752243  0.07997534  0.09523581    -0.19900
F3007       F  0.60016201  0.10296544  0.12567055    -0.20200
F3008       F  0.61275353  0.10357912  0.08358286    -0.22900
C3009       C  0.39783222  0.94469603  0.84866157    -0.05700
C3010       C  0.40533356  0.97096549  0.84596402     0.00200
C3011       C  0.38588937  0.99039588  0.84100979    -0.08300
C3012       C  0.35945745  0.98252869  0.83838463    -0.05700
C3013       C  0.35218816  0.95620537  0.84094012     0.00200
C3014       C  0.37147847  0.93699964  0.84658482    -0.08300
C3015       C  0.36403964  0.90864622  0.85139050     0.62100
H3016       H  0.41280186  0.93023053  0.85314484     0.12800
H3017       H  0.34427318  0.99679428  0.83398071     0.12800
C3018       C  0.39296873  0.01909023  0.83774165     0.62400
F3019       F  0.38530194  0.89372137  0.85955147    -0.22800
F3020       F  0.35437447  0.89773769  0.82851140    -0.20100
F3021       F  0.34505713  0.90758781  0.87081945    -0.19800
F3022       F  0.41314024  0.02152073  0.81969106    -0.19900
F3023       F  0.40080709  0.02939729  0.86159195    -0.20200
F3024       F  0.37183886  0.03374776  0.82879295    -0.22900
C3025       C  0.55088351  0.99884519  0.92424149    -0.05700
C3026       C  0.55222439  0.99007220  0.89810623     0.00200
C3027       C  0.57687453  0.98280723  0.88739711    -0.08300
C3028       C  0.59939898  0.98487161  0.90338525    -0.05700
C3029       C  0.59800490  0.99368190  0.92954654     0.00200
C3030       C  0.57325919  0.00082361  0.94025492    -0.08300
C3031       C  0.57025121  0.01118098  0.96811079     0.62100
H3032       H  0.53181953  0.00392989  0.93227026     0.12800
H3033       H  0.61845090  0.97950009  0.89551397     0.12800
C3034       C  0.57963370  0.97367180  0.85916517     0.62400
F3035       F  0.54475291  0.01924588  0.97333535    -0.22800
F3036       F  0.58662010  0.03251611  0.97182034    -0.20100
F3037       F  0.57652535  0.99169730  0.98594763    -0.19800
F3038       F  0.56846141  0.99193877  0.84242650    -0.19900
F3039       F  0.56721058  0.94977721  0.85600334    -0.20200
F3040       F  0.60573892  0.97055065  0.85201152    -0.22900
C3041       C  0.30162663  0.16078210  0.07559120    -0.05700
C3042       C  0.32107996  0.17507585  0.08895977     0.00200
C3043       C  0.34270508  0.16189346  0.10059686    -0.08300
C3044       C  0.34444462  0.13467763  0.09785118    -0.05700
C3045       C  0.32548777  0.12057941  0.08392351     0.00200
C3046       C  0.30378026  0.13347490  0.07245437    -0.08300
C3047       C  0.28341797  0.11833414  0.05687106     0.62100
H3048       H  0.28508527  0.17125531  0.06718096     0.12800
H3049       H  0.36106178  0.12412571  0.10605476     0.12800
C3050       C  0.36326224  0.17620949  0.11676848     0.62400
F3051       F  0.26343661  0.13444392  0.04780863    -0.22800
F3052       F  0.27237257  0.09916318  0.07260318    -0.20100
F3053       F  0.29524786  0.10657585  0.03543799    -0.19800
F3054       F  0.35098384  0.18889480  0.13730641    -0.19900
F3055       F  0.37646926  0.19422940  0.10136297    -0.20200
F3056       F  0.38177583  0.15926971  0.12731659    -0.22900
C3057       C  0.28634280  0.03336695  0.00225671    -0.05700
C3058       C  0.28462586  0.03036907  0.02963777     0.00200
C3059       C  0.25963339  0.02431718  0.04091689    -0.08300
C3060       C  0.23734200  0.02340372  0.02442838    -0.05700
C3061       C  0.23896285  0.02785526  0.99728571     0.00200
C3062       C  0.26412732  0.03225784  0.98579719    -0.08300
C3063       C  0.26783127  0.03689251  0.95649014     0.62100
H3064       H  0.30542751  0.03728875  0.99370586     0.12800
H3065       H  0.21811415  0.01964148  0.03277400     0.12800
C3066       C  0.25590575  0.01920891  0.07012511     0.62400
F3067       F  0.29378558  0.04217906  0.95008973    -0.22800
F3068       F  0.25287130  0.05812765  0.94851980    -0.20100
F3069       F  0.26040753  0.01477013  0.94267222    -0.19800
F3070       F  0.26206809  0.04149933  0.08429141    -0.19900
F3071       F  0.27181865  0.99861635  0.07797155    -0.20200
F3072       F  0.23020285  0.01249911  0.07617278    -0.22900
C3073       C  0.42624282  0.09057526  0.11035246    -0.05700
C3074       C  0.41297412  0.06701949  0.11583384     0.00200
C3075       C  0.42256038  0.05029026  0.13602358    -0.08300
C3076       C  0.44497918  0.05798806  0.15015084    -0.05700
C3077       C  0.45836668  0.08126209  0.14445487     0.00200
C3078       C  0.44914464  0.09784736  0.12415162    -0.08300
C3079       C  0.46438232  0.12211213  0.11606271     0.62100
H3080       H  0.41880830  0.10298937  0.09475388     0.12800
H3081       H  0.45294531  0.04533056  0.16530039     0.12800
C3082       C  0.41032672  0.02369256  0.14175945     0.62400
F3083       F  0.45229210  0.13532716  0.09558433    -0.22800
F3084       F  0.48930681  0.11491194  0.10791086    -0.20100
F3085       F  0.46640922  0.13910917  0.13709558    -0.19800
F3086       F  0.40832927  0.00936718  0.11879370    -0.19900
F3087       F  0.38562892  0.02695818  0.15264816    -0.20200
F3088       F  0.42530303  0.00920600  0.15927635    -0.22900
C3089       C  0.44624842  0.81965711  0.12246651    -0.05700
C3090       C  0.44976290  0.84600070  0.11566252     0.00200
C3091       C  0.45008585  0.86546681  0.13553316    -0.08300
C3092       C  0.44573355  0.85779287  0.16166353    -0.05700
C3093       C  0.44136325  0.83149775  0.16851236     0.00200
C3094       C  0.44257510  0.81186756  0.14871134    -0.08300
C3095       C  0.44069772  0.78279704  0.15501517     0.62100
H3096       H  0.44647545  0.80515214  0.10693817     0.12800
H3097       H  0.44495691  0.87251733  0.17694298     0.12800
C3098       C  0.45394095  0.89435096  0.12918087     0.62400
F3099       F  0.44803794  0.76745634  0.13382189    -0.22800
F3100       F  0.41509874  0.77632868  0.16153616    -0.20100
F3101       F  0.45729588  0.77672117  0.17570478    -0.19800
F3102       F  0.43563206  0.90224568  0.11070718    -0.19900
F3103       F  0.47902614  0.89841247  0.11949563    -0.20200
F3104       F  0.45089559  0.91007361  0.15112369    -0.22900
C3105       C  0.44433944  0.92079239  0.96710753    -0.05700
C3106       C  0.46083726  0.89878510  0.96857739     0.00200
C3107       C  0.47977592  0.89437678  0.94885981    -0.08300
C3108       C  0.48204346  0.91272976  0.92838081    -0.05700
C3109       C  0.46645260  0.93561543  0.92741112     0.00200
C3110       C  0.44697527  0.93960537  0.94700094    -0.08300
C3111       C  0.42915578  0.96350073  0.94700509     0.62100
H3112       H  0.43024076  0.92384727  0.98277610     0.12800
H3113       H  0.49673328  0.90964625  0.91329429     0.12800
C3114       C  0.49740723  0.87035538  0.94957317     0.62400
F3115       F  0.41004917  0.96197044  0.96633633    -0.22800
F3116       F  0.41652596  0.96569773  0.92303045    -0.20100
F3117       F  0.44392964  0.98578065  0.95163692    -0.19800
F3118       F  0.48209387  0.84798583  0.95105166    -0.19900
F3119       F  0.51373446  0.87145381  0.97124558    -0.20200
F3120       F  0.51304686  0.86853387  0.92738765    -0.22900
C3121       C  0.39017963  0.93069538  0.06244841    -0.05700
C3122       C  0.41706419  0.93312340  0.05591710     0.00200
C3123       C  0.42812681  0.95854080  0.05304776    -0.08300
C3124       C  0.41190647  0.98037975  0.05730156    -0.05700
C3125       C  0.38514856  0.97787855  0.06359157     0.00200
C3126       C  0.37387248  0.95271600  0.06606585    -0.08300
C3127       C  0.34464916  0.94915153  0.07119723     0.62100
H3128       H  0.38184624  0.91126745  0.06444714     0.12800
H3129       H  0.42005617  0.99992788  0.05558418     0.12800
C3130       C  0.45651706  0.96303231  0.04466453     0.62400
F3131       F  0.33727400  0.92305221  0.07007900    -0.22800
F3132       F  0.33028515  0.96269499  0.05248427    -0.20100
F3133       F  0.33836708  0.95852947  0.09586954    -0.19800
F3134       F  0.46140554  0.95014376  0.02127727    -0.19900
F3135       F  0.47344252  0.95395607  0.06390717    -0.20200
F3136       F  0.46196834  0.98933885  0.04071118    -0.22900
C3137       C  0.70951612  0.15565098  0.60977689    -0.05700
C3138       C  0.70809652  0.17374708  0.58905906     0.00200
C3139       C  0.70337728  0.16480883  0.56329404    -0.08300
C3140       C  0.69727751  0.13818945  0.55961774    -0.05700
C3141       C  0.69608704  0.12040595  0.58081577     0.00200
C3142       C  0.70319117  0.12908088  0.60632697    -0.08300
C3143       C  0.70308819  0.11098609  0.63007778     0.62100
H3144       H  0.71466362  0.16280492  0.62910134     0.12800
H3145       H  0.69278765  0.13119699  0.54005108     0.12800
C3146       C  0.70577881  0.18303041  0.53982605     0.62400
F3147       F  0.70939280  0.12411241  0.65301712    -0.22800
F3148       F  0.72146713  0.09126782  0.62665798    -0.20100
F3149       F  0.67833194  0.10015980  0.63330908    -0.19800
F3150       F  0.72970686  0.19596300  0.54074285    -0.19900
F3151       F  0.68562187  0.20122565  0.54008165    -0.20200
F3152       F  0.70454883  0.16946567  0.51632125    -0.22900
C3153       C  0.75137247  0.02344710  0.53105198    -0.05700
C3154       C  0.73055353  0.03825449  0.52006591     0.00200
C3155       C  0.73546510  0.05238998  0.49642857    -0.08300
C3156       C  0.76048469  0.05035425  0.48453750    -0.05700
C3157       C  0.78129866  0.03629971  0.49604581     0.00200
C3158       C  0.77680587  0.02277360  0.51987163    -0.08300
C3159       C  0.79870213  0.00770034  0.53345823     0.62100
H3160       H  0.74786816  0.01293784  0.54918332     0.12800
H3161       H  0.76441979  0.06079142  0.46645389     0.12800
C3162       C  0.71517030  0.07062848  0.48422661     0.62400
F3163       F  0.78954149  0.99364786  0.55485513    -0.22800
F3164       F  0.81766375  0.02498166  0.54235050    -0.20100
F3165       F  0.81003740  0.99019788  0.51607767    -0.19800
F3166       F  0.70780897  0.08954178  0.50225914    -0.19900
F3167       F  0.69335821  0.05642548  0.47644277    -0.20200
F3168       F  0.72488914  0.08352131  0.46233708    -0.22900
C3169       C  0.39494811  0.08256067  0.67353954    -0.05700
C3170       C  0.41138588  0.08634216  0.69532928     0.00200
C3171       C  0.40042600  0.09226169  0.72004733    -0.08300
C3172       C  0.37301988  0.09525919  0.72185246    -0.05700
C3173       C  0.35642224  0.09261053  0.69979762     0.00200
C3174       C  0.36753678  0.08575760  0.67516022    -0.08300
C3175       C  0.35103064  0.08264521  0.65045768     0.62100
H3176       H  0.40399556  0.07766794  0.65491026     0.12800
H3177       H  0.36435391  0.10002803  0.74067338     0.12800
C3178       C  0.41746073  0.09454883  0.74444116     0.62400
F3179       F  0.36634604  0.07737381  0.62859995    -0.22800
F3180       F  0.33723951  0.10552530  0.64554402    -0.20100
F3181       F  0.33363458  0.06202933  0.65355627    -0.19800
F3182       F  0.43462390  0.11540575  0.74188201    -0.19900
F3183       F  0.43168973  0.07166960  0.74780477    -0.20200
F3184       F  0.40256668  0.09858400  0.76684641    -0.22900
C3185       C  0.48950933  0.06438908  0.77076155    -0.05700
C3186       C  0.50070400  0.05001299  0.74999849     0.00200
C3187       C  0.51208823  0.02530603  0.75541610    -0.08300
C3188       C  0.50930545  0.01463305  0.78073379    -0.05700
C3189       C  0.49575344  0.02774736  0.80105335     0.00200
C3190       C  0.48685296  0.05381099  0.79632412    -0.08300
C3191       C  0.47418493  0.07038599  0.81763201     0.62100
H3192       H  0.48163258  0.08364602  0.76644655     0.12800
H3193       H  0.51717176  0.99526561  0.78448627     0.12800
C3194       C  0.52738490  0.01023959  0.73470800     0.62400
F3195       F  0.46811150  0.09536226  0.80881855    -0.22800
F3196       F  0.49131442  0.07291453  0.83859065    -0.20100
F3197       F  0.45109499  0.05880892  0.82602270    -0.19800
F3198       F  0.54494464  0.02681040  0.72221396    -0.19900
F3199       F  0.51025932  0.99974764  0.71644137    -0.20200
F3200       F  0.54169142  0.98984224  0.74562094    -0.22900
C3201       C  0.57240701  0.04893946  0.64633010    -0.05700
C3202       C  0.56101382  0.07398618  0.64755932     0.00200
C3203       C  0.57240282  0.09468454  0.63266136    -0.08300
C3204       C  0.59398050  0.08900866  0.61603355    -0.05700
C3205       C  0.60475599  0.06369459  0.61434866     0.00200
C3206       C  0.59411032  0.04338262  0.63015486    -0.08300
C3207       C  0.60477759  0.01556008  0.62920022     0.62100
H3208       H  0.56365485  0.03338927  0.65788952     0.12800
H3209       H  0.60264796  0.10433105  0.60411467     0.12800
C3210       C  0.56146807  0.12238259  0.63355695     0.62400
F3211       F  0.58946071  0.99829907  0.64358084    -0.22800
F3212       F  0.62995683  0.01489323  0.63945801    -0.20100
F3213       F  0.60522584  0.00683416  0.60354107    -0.19800
F3214       F  0.56284909  0.13189312  0.65894374    -0.19900
F3215       F  0.53556425  0.12245357  0.62521531    -0.20200
F3216       F  0.57549381  0.13932436  0.61756605    -0.22900
C3217       C  0.34279723  0.90463771  0.45275709    -0.05700
C3218       C  0.32157157  0.92127966  0.44694728     0.00200
C3219       C  0.29703620  0.91031520  0.43994849    -0.08300
C3220       C  0.29529988  0.88289434  0.43700839    -0.05700
C3221       C  0.31699479  0.86615077  0.44162365     0.00200
C3222       C  0.34102034  0.87725737  0.45062503    -0.08300
C3223       C  0.36498156  0.86079678  0.45772125     0.62100
H3224       H  0.36122362  0.91348453  0.45872242     0.12800
H3225       H  0.27677449  0.87434873  0.43095860     0.12800
C3226       C  0.27265193  0.92725330  0.43673971     0.62400
F3227       F  0.38585158  0.87601102  0.46626118    -0.22800
F3228       F  0.37342506  0.84690119  0.43598232    -0.20100
F3229       F  0.35868763  0.84369088  0.47786227    -0.19800
F3230       F  0.27563881  0.94385136  0.41549441    -0.19900
F3231       F  0.26877591  0.94196677  0.45923177    -0.20200
F3232       F  0.25027631  0.91231886  0.43261520    -0.22900
C3233       C  0.22259471  0.01080946  0.49369804    -0.05700
C3234       C  0.22266700  0.00627874  0.52086988     0.00200
C3235       C  0.24727907  0.00416365  0.53413905    -0.08300
C3236       C  0.27065881  0.00567441  0.51942931    -0.05700
C3237       C  0.27075004  0.00915670  0.49206428     0.00200
C3238       C  0.24610959  0.01270251  0.47897831    -0.08300
C3239       C  0.24412307  0.01833093  0.44971313     0.62100
H3240       H  0.20372867  0.01274824  0.48399764     0.12800
H3241       H  0.28934930  0.00362548  0.52940204     0.12800
C3242       C  0.24931827  0.99934182  0.56360324     0.62400
F3243       F  0.21836845  0.02243045  0.44177591    -0.22800
F3244       F  0.25385012  0.99734712  0.43553804    -0.20100
F3245       F  0.25820484  0.04076069  0.44373087    -0.19800
F3246       F  0.23503410  0.97727702  0.57040109    -0.19900
F3247       F  0.23987467  0.02088622  0.57712863    -0.20200
F3248       F  0.27503780  0.99526511  0.57164007    -0.22900
C3249       C  0.45855424  0.17273232  0.39307725    -0.05700
C3250       C  0.45371586  0.19271262  0.41142366     0.00200
C3251       C  0.44649504  0.21794800  0.40255132    -0.08300
C3252       C  0.44291930  0.22181507  0.37546523    -0.05700
C3253       C  0.44568459  0.20125778  0.35712757     0.00200
C3254       C  0.45418004  0.17626693  0.36605572    -0.08300
C3255       C  0.45750881  0.15299733  0.34772061     0.62100
H3256       H  0.46465748  0.15371200  0.40032466     0.12800
H3257       H  0.43698607  0.24099006  0.36851014     0.12800
C3258       C  0.44286370  0.24075571  0.42139543     0.62400
F3259       F  0.46501180  0.13051014  0.36102669    -0.22800
F3260       F  0.47675394  0.15842855  0.32930643    -0.20100
F3261       F  0.43392164  0.14773609  0.33520995    -0.19800
F3262       F  0.46479921  0.24309736  0.43733441    -0.19900
F3263       F  0.42083409  0.23666967  0.43678321    -0.20200
F3264       F  0.43951269  0.26428839  0.40823118    -0.22900
C3265       C  0.46541548  0.13829485  0.60627325    -0.05700
C3266       C  0.46902111  0.11087489  0.60698473     0.00200
C3267       C  0.46764991  0.09651485  0.58305639    -0.08300
C3268       C  0.46342392  0.11037210  0.55951913    -0.05700
C3269       C  0.46097661  0.13776183  0.55891066     0.00200
C3270       C  0.46186595  0.15206378  0.58260514    -0.08300
C3271       C  0.46098264  0.18179010  0.58273437     0.62100
H3272       H  0.46620283  0.14917750  0.62448659     0.12800
H3273       H  0.46262183  0.09991281  0.54103210     0.12800
C3274       C  0.47149077  0.06696146  0.58179207     0.62400
F3275       F  0.43699904  0.19040384  0.57322296    -0.22800
F3276       F  0.48103881  0.19141322  0.56710492    -0.20100
F3277       F  0.46422751  0.19196089  0.60772086    -0.19800
F3278       F  0.45198884  0.05453216  0.59608125    -0.19900
F3279       F  0.49596838  0.06038894  0.59174731    -0.20200
F3280       F  0.47022722  0.05757676  0.55631393    -0.22900
C3281       C  0.38592271  0.07828849  0.44050171    -0.05700
C3282       C  0.36987614  0.07024133  0.46153805     0.00200
C3283       C  0.37167954  0.08374877  0.48582610    -0.08300
C3284       C  0.39094607  0.10322899  0.48885200    -0.05700
C3285       C  0.40795529  0.11031459  0.46837743     0.00200
C3286       C  0.40495017  0.09829266  0.44348197    -0.08300
C3287       C  0.42143610  0.10682976  0.42020041     0.62100
H3288       H  0.38448479  0.06776663  0.42209204     0.12800
H3289       H  0.39280184  0.11305876  0.50764847     0.12800
C3290       C  0.35403233  0.07834613  0.50928394     0.62400
F3291       F  0.41442068  0.09371603  0.39745690    -0.22800
F3292       F  0.44772741  0.10184117  0.42510604    -0.20100
F3293       F  0.41793181  0.13337745  0.41595192    -0.19800
F3294       F  0.36860533  0.06616424  0.52873248    -0.19900
F3295       F  0.33257887  0.06285409  0.50316266    -0.20200
F3296       F  0.34440601  0.10180647  0.51897991    -0.22900
C3297       C  0.61717810  0.95862536  0.35382718    -0.05700
C3298       C  0.60062689  0.95575459  0.33192654     0.00200
C3299       C  0.61151858  0.94856699  0.30747021    -0.08300
C3300       C  0.63893615  0.94461382  0.30585806    -0.05700
C3301       C  0.65561144  0.94723093  0.32791386     0.00200
C3302       C  0.64442627  0.95424621  0.35247355    -0.08300
C3303       C  0.66067058  0.95634204  0.37746530     0.62100
H3304       H  0.60834005  0.96401036  0.37241401     0.12800
H3305       H  0.64753737  0.93913968  0.28720464     0.12800
C3306       C  0.59443512  0.94559099  0.28320247     0.62400
F3307       F  0.64521204  0.96121625  0.39931252    -0.22800
F3308       F  0.67848736  0.97670746  0.37519597    -0.20100
F3309       F  0.67392238  0.93305714  0.38186062    -0.19800
F3310       F  0.58018536  0.96834557  0.27906042    -0.19900
F3311       F  0.57728430  0.92482152  0.28654609    -0.20200
F3312       F  0.60928392  0.94076794  0.26093003    -0.22900
C3313       C  0.52058140  0.04114350  0.28811368    -0.05700
C3314       C  0.51459522  0.01430046  0.28606453     0.00200
C3315       C  0.50844830  0.00384957  0.26076808    -0.08300
C3316       C  0.50901948  0.02067040  0.23883937    -0.05700
C3317       C  0.51604525  0.04712800  0.24086108     0.00200
C3318       C  0.52194325  0.05770561  0.26602220    -0.08300
C3319       C  0.53111959  0.08587129  0.26971627     0.62100
H3320       H  0.52511578  0.04904659  0.30729385     0.12800
H3321       H  0.50463391  0.01304158  0.21949662     0.12800
C3322       C  0.50207541  0.97505664  0.25619516     0.62400
F3323       F  0.53817777  0.09105561  0.29546519    -0.22800
F3324       F  0.51113256  0.10303082  0.26301993    -0.20100
F3325       F  0.55294047  0.09058660  0.25417583    -0.19800
F3326       F  0.48027777  0.96795669  0.27082469    -0.19900
F3327       F  0.52344587  0.95971665  0.26312780    -0.20200
F3328       F  0.49641026  0.96980058  0.23012184    -0.22900
C3329       C  0.45482529  0.98873873  0.40878393    -0.05700
C3330       C  0.45336405  0.97823683  0.38325099     0.00200
C3331       C  0.42854037  0.97029841  0.37337523    -0.08300
C3332       C  0.40616338  0.97314871  0.38958197    -0.05700
C3333       C  0.40779641  0.98342292  0.41521855     0.00200
C3334       C  0.43263041  0.99145753  0.42500376    -0.08300
C3335       C  0.43586092  0.00363042  0.45207899     0.62100
H3336       H  0.47389576  0.99450498  0.41628848     0.12800
H3337       H  0.38703307  0.96727833  0.38229042     0.12800
C3338       C  0.42541778  0.95965395  0.34573185     0.62400
F3339       F  0.46132022  0.01225150  0.45645865    -0.22800
F3340       F  0.42999859  0.98529794  0.47122132    -0.20100
F3341       F  0.41929795  0.02501426  0.45457382    -0.19800
F3342       F  0.43759947  0.93548828  0.34381645    -0.19900
F3343       F  0.43659491  0.97683921  0.32790345    -0.20200
F3344       F  0.39921057  0.95646690  0.33898348    -0.22900
C3345       C  0.56157448  0.87319837  0.62436818    -0.05700
C3346       C  0.56579501  0.85149984  0.60795858     0.00200
C3347       C  0.57118927  0.82673039  0.61903315    -0.08300
C3348       C  0.57204340  0.82456321  0.64650748    -0.05700
C3349       C  0.56880202  0.84645035  0.66316970     0.00200
C3350       C  0.56355585  0.87136739  0.65184689    -0.08300
C3351       C  0.56109868  0.89615220  0.66820358     0.62100
H3352       H  0.55738980  0.89195277  0.61526974     0.12800
H3353       H  0.57608068  0.80560096  0.65518371     0.12800
C3354       C  0.57588147  0.80272385  0.60201973     0.62400
F3355       F  0.55719754  0.91819213  0.65277324    -0.22800
F3356       F  0.58392837  0.89999785  0.68250734    -0.20100
F3357       F  0.53986589  0.89402314  0.68504793    -0.19800
F3358       F  0.59877631  0.80596614  0.58770745    -0.19900
F3359       F  0.55494932  0.79923917  0.58500001    -0.20200
F3360       F  0.57851497  0.78012863  0.61688030    -0.22900
C3361       C  0.52521480  0.89316324  0.44687622    -0.05700
C3362       C  0.55104576  0.89128719  0.45652477     0.00200
C3363       C  0.57186756  0.90369109  0.44269157    -0.08300
C3364       C  0.56557890  0.91922153  0.42067244    -0.05700
C3365       C  0.53950375  0.92223595  0.41219850     0.00200
C3366       C  0.51900634  0.90851349  0.42493058    -0.08300
C3367       C  0.49050962  0.91129692  0.41635110     0.62100
H3368       H  0.50960425  0.88331029  0.45748477     0.12800
H3369       H  0.58091597  0.92952349  0.41008496     0.12800
C3370       C  0.60030998  0.90151524  0.45155699     0.62400
F3371       F  0.47348121  0.89780578  0.43272231    -0.22800
F3372       F  0.48739652  0.90159480  0.39120973    -0.20100
F3373       F  0.48344257  0.93742878  0.41681163    -0.19800
F3374       F  0.61721685  0.91490731  0.43496665    -0.19900
F3375       F  0.60788610  0.87546886  0.45173074    -0.20200
F3376       F  0.60302197  0.91188984  0.47648886    -0.22900
C3377       C  0.62562421  0.93316532  0.54613098    -0.05700
C3378       C  0.59797462  0.93498077  0.54386792     0.00200
C3379       C  0.58602640  0.96023526  0.54511918    -0.08300
C3380       C  0.60226883  0.98235330  0.54853694    -0.05700
C3381       C  0.62968083  0.98027746  0.55129699     0.00200
C3382       C  0.64169255  0.95536015  0.54980703    -0.08300
C3383       C  0.67138868  0.95231803  0.55114089     0.62100
H3384       H  0.63477493  0.91403095  0.54512932     0.12800
H3385       H  0.59356533  0.00171165  0.54961655     0.12800
C3386       C  0.55644437  0.96429792  0.54277938     0.62400
F3387       F  0.67925476  0.92689745  0.54574728    -0.22800
F3388       F  0.68020424  0.95868645  0.57600741    -0.20100
F3389       F  0.68315266  0.96870321  0.53292974    -0.19800
F3390       F  0.54377318  0.95197171  0.56341812    -0.19900
F3391       F  0.54754680  0.95427771  0.51915246    -0.20200
F3392       F  0.54958344  0.99056525  0.54356735    -0.22900
C3393       C  0.34785890  0.40698887  0.56710499    -0.05700
C3394       C  0.32840033  0.42406252  0.57677740     0.00200
C3395       C  0.30500685  0.41371900  0.58739587    -0.08300
C3396       C  0.30250013  0.38636891  0.58906434    -0.05700
C3397       C  0.32258897  0.36905486  0.58068655     0.00200
C3398       C  0.34549913  0.37961950  0.56876309    -0.08300
C3399       C  0.36763260  0.36261220  0.55809216     0.62100
H3400       H  0.36554563  0.41541908  0.55877237     0.12800
H3401       H  0.28476119  0.37839596  0.59767121     0.12800
C3402       C  0.28264670  0.43129333  0.59650071     0.62400
F3403       F  0.38707009  0.37733741  0.54601113    -0.22800
F3404       F  0.35777253  0.34541548  0.53957137    -0.20100
F3405       F  0.37928725  0.34876935  0.57836621    -0.19800
F3406       F  0.27585046  0.44857522  0.57666336    -0.19900
F3407       F  0.29034758  0.44523466  0.61845967    -0.20200
F3408       F  0.26040738  0.41703915  0.60304691    -0.22900
C3409       C  0.62307605  0.44274812  0.67405383    -0.05700
C3410       C  0.60636445  0.44442089  0.69587231     0.00200
C3411       C  0.61702133  0.44534122  0.72138654    -0.08300
C3412       C  0.64460727  0.44502341  0.72414336    -0.05700
C3413       C  0.66153278  0.44415559  0.70217296     0.00200
C3414       C  0.65052490  0.44248658  0.67658370    -0.08300
C3415       C  0.66723644  0.43987600  0.65192902     0.62100
H3416       H  0.61422040  0.44214251  0.65469466     0.12800
H3417       H  0.65318874  0.44585764  0.74358983     0.12800
C3418       C  0.59938104  0.44768248  0.74528314     0.62400
F3419       F  0.65202082  0.43633785  0.62964271    -0.22800
F3420       F  0.68373329  0.41840828  0.65416056    -0.20100
F3421       F  0.68197674  0.46236483  0.64828279    -0.19800
F3422       F  0.58244024  0.42650484  0.74635433    -0.19900
F3423       F  0.58483527  0.47057114  0.74371530    -0.20200
F3424       F  0.61373648  0.44819272  0.76838827    -0.22900
C3425       C  0.43846186  0.46194515  0.64978862    -0.05700
C3426       C  0.46241404  0.46370159  0.63634607     0.00200
C3427       C  0.46238321  0.46911813  0.60892322    -0.08300
C3428       C  0.43844656  0.47495376  0.59656340    -0.05700
C3429       C  0.41463091  0.47537433  0.61036427     0.00200
C3430       C  0.41435257  0.46756890  0.63728026    -0.08300
C3431       C  0.38900496  0.46490294  0.65293221     0.62100
H3432       H  0.43889372  0.45718615  0.67051758     0.12800
H3433       H  0.43838342  0.48025910  0.57597627     0.12800
C3434       C  0.48732467  0.46868451  0.59235802     0.62400
F3435       F  0.39321627  0.45290540  0.67697603    -0.22800
F3436       F  0.37112986  0.44974677  0.63916654    -0.20100
F3437       F  0.37836845  0.48940188  0.65769917    -0.19800
F3438       F  0.50150427  0.44614219  0.59743715    -0.19900
F3439       F  0.50263117  0.49038571  0.59784418    -0.20200
F3440       F  0.48176066  0.46899960  0.56573314    -0.22900
C3441       C  0.56185839  0.33332991  0.40406277    -0.05700
C3442       C  0.58431939  0.33093219  0.42018886     0.00200
C3443       C  0.60941086  0.32755917  0.40825412    -0.08300
C3444       C  0.61080606  0.32693397  0.38066965    -0.05700
C3445       C  0.58841489  0.33028487  0.36485775     0.00200
C3446       C  0.56349691  0.33337945  0.37656520    -0.08300
C3447       C  0.53874632  0.33633082  0.36011421     0.62100
H3448       H  0.54277397  0.33573728  0.41319074     0.12800
H3449       H  0.62963923  0.32430523  0.37104573     0.12800
C3450       C  0.63473528  0.32537305  0.42407234     0.62400
F3451       F  0.51624623  0.33657336  0.37543464    -0.22800
F3452       F  0.53676556  0.31564845  0.34266886    -0.20100
F3453       F  0.53970774  0.35965450  0.34629706    -0.19800
F3454       F  0.63383779  0.30335631  0.43991921    -0.19900
F3455       F  0.63799365  0.34752474  0.43938893    -0.20200
F3456       F  0.65669525  0.32313897  0.40811129    -0.22900
C3457       C  0.51223601  0.27643499  0.51675078    -0.05700
C3458       C  0.53818367  0.27613935  0.50750616     0.00200
C3459       C  0.54899516  0.25203802  0.49859085    -0.08300
C3460       C  0.53250920  0.22969071  0.49719230    -0.05700
C3461       C  0.50579916  0.23047681  0.50466919     0.00200
C3462       C  0.49589084  0.25417232  0.51597225    -0.08300
C3463       C  0.46814060  0.25677531  0.52697046     0.62100
H3464       H  0.50448864  0.29484392  0.52399537     0.12800
H3465       H  0.54024432  0.21156263  0.48930762     0.12800
C3466       C  0.57743477  0.25002225  0.48965007     0.62400
F3467       F  0.46464181  0.28009305  0.54044794    -0.22800
F3468       F  0.46315937  0.23664718  0.54444711    -0.20100
F3469       F  0.44996285  0.25624435  0.50676200    -0.19800
F3470       F  0.59399546  0.25580504  0.51040864    -0.19900
F3471       F  0.58199609  0.26739150  0.46928091    -0.20200
F3472       F  0.58362880  0.22508170  0.48088256    -0.22900
C3473       C  0.54089818  0.36951188  0.58380749    -0.05700
C3474       C  0.56475227  0.37358319  0.57057504     0.00200
C3475       C  0.58271924  0.39253105  0.58028008    -0.08300
C3476       C  0.57495991  0.40847426  0.60146603    -0.05700
C3477       C  0.55065523  0.40509273  0.61405503     0.00200
C3478       C  0.53384764  0.38430472  0.60605331    -0.08300
C3479       C  0.50847678  0.37779657  0.62050586     0.62100
H3480       H  0.52761899  0.35472113  0.57625150     0.12800
H3481       H  0.58789797  0.42383609  0.60844642     0.12800
C3482       C  0.60959684  0.39655966  0.56795970     0.62400
F3483       F  0.49423197  0.35840717  0.60787663    -0.22800
F3484       F  0.49262484  0.39974955  0.62230052    -0.20100
F3485       F  0.51435717  0.36882078  0.64546064    -0.19800
F3486       F  0.60683020  0.40421227  0.54216097    -0.19900
F3487       F  0.62376610  0.37344084  0.56904603    -0.20200
F3488       F  0.62398679  0.41568551  0.58081932    -0.22900
C3489       C  0.69114418  0.64890868  0.42146538    -0.05700
C3490       C  0.68931795  0.66619044  0.44274013     0.00200
C3491       C  0.68612023  0.65636894  0.46839762    -0.08300
C3492       C  0.68332904  0.62915713  0.47171903    -0.05700
C3493       C  0.68420736  0.61165103  0.45028043     0.00200
C3494       C  0.68887187  0.62168973  0.42462640    -0.08300
C3495       C  0.69112663  0.60427861  0.40047728     0.62100
H3496       H  0.69417660  0.65713264  0.40207466     0.12800
H3497       H  0.68035343  0.62137508  0.49127810     0.12800
C3498       C  0.68663981  0.67442690  0.49206779     0.62400
F3499       F  0.69533968  0.61865301  0.37777817    -0.22800
F3500       F  0.66813962  0.59015555  0.39708984    -0.20100
F3501       F  0.71219859  0.58732506  0.40335297    -0.19800
F3502       F  0.66522961  0.69114331  0.49135712    -0.19900
F3503       F  0.70956695  0.68905702  0.49185680    -0.20200
F3504       F  0.68577275  0.66057087  0.51544402    -0.22900
C3505       C  0.61102923  0.46368089  0.48454797    -0.05700
C3506       C  0.63720831  0.46347166  0.47573087     0.00200
C3507       C  0.64956824  0.43919907  0.47022486    -0.08300
C3508       C  0.63520605  0.41589910  0.47433748    -0.05700
C3509       C  0.60887818  0.41614175  0.48302682     0.00200
C3510       C  0.59639442  0.44058542  0.48797250    -0.08300
C3511       C  0.56790181  0.44271830  0.49701481     0.62100
H3512       H  0.60182074  0.48244386  0.48829018     0.12800
H3513       H  0.64444739  0.39715625  0.47050591     0.12800
C3514       C  0.67786866  0.43775400  0.46076538     0.62400
F3515       F  0.56082714  0.46832655  0.50264546    -0.22800
F3516       F  0.56407309  0.42806664  0.51954958    -0.20100
F3517       F  0.55132753  0.43384485  0.47740287    -0.19800
F3518       F  0.69407331  0.45110652  0.47800356    -0.19900
F3519       F  0.67987778  0.44879751  0.43604728    -0.20200
F3520       F  0.68676008  0.41213609  0.45914736    -0.22900
C3521       C  0.39257804  0.56248977  0.33523359    -0.05700
C3522       C  0.41042416  0.58283477  0.32921591     0.00200
C3523       C  0.40072740  0.60608210  0.31730484    -0.08300
C3524       C  0.37338072  0.60864808  0.31374528    -0.05700
C3525       C  0.35553618  0.58927655  0.32214400     0.00200
C3526       C  0.36528073  0.56533815  0.33217086    -0.08300
C3527       C  0.34716680  0.54285483  0.33971549     0.62100
H3528       H  0.40006466  0.54440149  0.34348655     0.12800
H3529       H  0.36557618  0.62652251  0.30530855     0.12800
C3530       C  0.41866706  0.62845874  0.30903640     0.62400
F3531       F  0.36102921  0.51999425  0.34465475    -0.22800
F3532       F  0.32966401  0.53781349  0.31951566    -0.20100
F3533       F  0.33338702  0.54926694  0.36222215    -0.19800
F3534       F  0.43688113  0.61950134  0.29094896    -0.19900
F3535       F  0.43153495  0.63849090  0.33075576    -0.20200
F3536       F  0.40484440  0.64881111  0.29743675    -0.22900
C3537       C  0.55130513  0.55946785  0.41966555    -0.05700
C3538       C  0.55394612  0.56256522  0.39240852     0.00200
C3539       C  0.57907956  0.56071552  0.38079822    -0.08300
C3540       C  0.60085217  0.55520961  0.39704377    -0.05700
C3541       C  0.59827821  0.55163025  0.42442004     0.00200
C3542       C  0.57293855  0.55417063  0.43605049    -0.08300
C3543       C  0.56821765  0.55083631  0.46537371     0.62100
H3544       H  0.53179138  0.56117949  0.42806767     0.12800
H3545       H  0.62021348  0.55365736  0.38831584     0.12800
C3546       C  0.58271070  0.56364093  0.35137999     0.62400
F3547       F  0.54173831  0.55207872  0.47171645    -0.22800
F3548       F  0.58085363  0.57058253  0.47903931    -0.20100
F3549       F  0.57750887  0.52668426  0.47355286    -0.19800
F3550       F  0.57588270  0.58876873  0.34378253    -0.19900
F3551       F  0.56691412  0.54579002  0.33836333    -0.20200
F3552       F  0.60851974  0.55924866  0.34384933    -0.22900
C3553       C  0.44193521  0.72739395  0.61867323    -0.05700
C3554       C  0.44406806  0.70140957  0.61017810     0.00200
C3555       C  0.44339822  0.68067412  0.62877836    -0.08300
C3556       C  0.44101829  0.68682472  0.65548843    -0.05700
C3557       C  0.43784587  0.71269256  0.66405146     0.00200
C3558       C  0.43863451  0.73353904  0.64541772    -0.08300
C3559       C  0.43579309  0.76212662  0.65336424     0.62100
H3560       H  0.44244694  0.74284152  0.60406944     0.12800
H3561       H  0.43990559  0.67119585  0.66984943     0.12800
C3562       C  0.44275131  0.65207646  0.62045305     0.62400
F3563       F  0.44290147  0.77891619  0.63319733    -0.22800
F3564       F  0.45182920  0.76750521  0.67465241    -0.20100
F3565       F  0.40987730  0.76737646  0.65980372    -0.19800
F3566       F  0.46584188  0.64529517  0.60785202    -0.19900
F3567       F  0.42167358  0.64822130  0.60379332    -0.20200
F3568       F  0.43970055  0.63530819  0.64163228    -0.22900
C3569       C  0.51708127  0.75036884  0.51581559    -0.05700
C3570       C  0.48982719  0.75072366  0.52051497     0.00200
C3571       C  0.47710046  0.77544091  0.52367644    -0.08300
C3572       C  0.49243181  0.79844450  0.52337575    -0.05700
C3573       C  0.51989836  0.79810018  0.52001664     0.00200
C3574       C  0.53239499  0.77350307  0.51513452    -0.08300
C3575       C  0.56167152  0.77117119  0.50934912     0.62100
H3576       H  0.52646437  0.73152604  0.51297757     0.12800
H3577       H  0.48287505  0.81715664  0.52636381     0.12800
C3578       C  0.44760041  0.77797588  0.52833226     0.62400
F3579       F  0.56902003  0.74563159  0.50375003    -0.22800
F3580       F  0.57611625  0.77925736  0.53088801    -0.20100
F3581       F  0.56798818  0.78636399  0.48772900    -0.19800
F3582       F  0.44051515  0.76403136  0.55053948    -0.19900
F3583       F  0.43398841  0.76860898  0.50677076    -0.20200
F3584       F  0.43990759  0.80375050  0.53210924    -0.22900
C3585       C  0.47963326  0.65622435  0.44708263    -0.05700
C3586       C  0.45596847  0.65317823  0.46088167     0.00200
C3587       C  0.43711393  0.63478669  0.45183122    -0.08300
C3588       C  0.44337228  0.61899014  0.42996162    -0.05700
C3589       C  0.46745434  0.62147930  0.41666308     0.00200
C3590       C  0.48564683  0.64100272  0.42484402    -0.08300
C3591       C  0.51183906  0.64513201  0.41099738     0.62100
H3592       H  0.49376897  0.67032918  0.45440492     0.12800
H3593       H  0.42956417  0.60430857  0.42318973     0.12800
C3594       C  0.41107926  0.63097482  0.46590418     0.62400
F3595       F  0.52751776  0.66317995  0.42392073    -0.22800
F3596       F  0.50754701  0.65447002  0.38585814    -0.20100
F3597       F  0.52553176  0.62171903  0.40981802    -0.19800
F3598       F  0.39719224  0.65429642  0.46608449    -0.19900
F3599       F  0.41561211  0.62294846  0.49141769    -0.20200
F3600       F  0.39557551  0.61222186  0.45380488    -0.22900
C3601       C  0.42376874  0.59473252  0.55946605    -0.05700
C3602       C  0.40955585  0.61781993  0.55441491     0.00200
C3603       C  0.38154889  0.61748983  0.55763310    -0.08300
C3604       C  0.36903923  0.59355273  0.56377074    -0.05700
C3605       C  0.38336451  0.57041205  0.56707821     0.00200
C3606       C  0.41121528  0.57108438  0.56590471    -0.08300
C3607       C  0.42771531  0.54694387  0.57188759     0.62100
H3608       H  0.44500155  0.59510777  0.55783032     0.12800
H3609       H  0.34778656  0.59242950  0.56498734     0.12800
C3610       C  0.36453980  0.64186803  0.55459630     0.62400
F3611       F  0.45434333  0.55263123  0.57280707    -0.22800
F3612       F  0.42394571  0.52813222  0.55275700    -0.20100
F3613       F  0.42052172  0.53691354  0.59606933    -0.19800
F3614       F  0.33842565  0.63703896  0.56069739    -0.19900
F3615       F  0.36542687  0.65063944  0.52890191    -0.20200
F3616       F  0.37333722  0.66131776  0.57135864    -0.22900
C3617       C  0.66210402  0.40458887  0.07954762    -0.05700
C3618       C  0.68341025  0.42208335  0.07867527     0.00200
C3619       C  0.70935460  0.41251566  0.08062158    -0.08300
C3620       C  0.71309534  0.38534672  0.08347774    -0.05700
C3621       C  0.69175264  0.36769184  0.08464753     0.00200
C3622       C  0.66567334  0.37749964  0.08281365    -0.08300
C3623       C  0.64161281  0.35992299  0.08518710     0.62100
H3624       H  0.64238578  0.41252270  0.07782434     0.12800
H3625       H  0.73290609  0.37767825  0.08513895     0.12800
C3626       C  0.73283779  0.43081019  0.07909618     0.62400
F3627       F  0.61835698  0.37409185  0.08452471    -0.22800
F3628       F  0.64234606  0.34645225  0.10876788    -0.20100
F3629       F  0.64107193  0.34231786  0.06456068    -0.19800
F3630       F  0.73233559  0.44800103  0.10006458    -0.19900
F3631       F  0.73198672  0.44488608  0.05587115    -0.20200
F3632       F  0.75644663  0.41726763  0.07991851    -0.22900
C3633       C  0.57267387  0.71984322  0.11472512    -0.05700
C3634       C  0.56364801  0.69528059  0.10650557     0.00200
C3635       C  0.55879687  0.67531859  0.12538164    -0.08300
C3636       C  0.56420395  0.68056232  0.15183367    -0.05700
C3637       C  0.57403748  0.70484163  0.16014198     0.00200
C3638       C  0.57758086  0.72530173  0.14133873    -0.08300
C3639       C  0.58621689  0.75286360  0.14884202     0.62100
H3640       H  0.57594614  0.73479316  0.09996061     0.12800
H3641       H  0.56129508  0.66527760  0.16629329     0.12800
C3642       C  0.54875458  0.64821079  0.11790508     0.62400
F3643       F  0.58385842  0.77023271  0.12804792    -0.22800
F3644       F  0.61233256  0.75269419  0.15651566    -0.20100
F3645       F  0.57065324  0.76219737  0.16908112    -0.19800
F3646       F  0.54862308  0.63114982  0.13907016    -0.19900
F3647       F  0.56467946  0.63736960  0.09878848    -0.20200
F3648       F  0.52322186  0.65005526  0.10868064    -0.22900
C3649       C  0.53320552  0.76959634  0.02221879    -0.05700
C3650       C  0.51707852  0.74716757  0.02096684     0.00200
C3651       C  0.48932035  0.75058334  0.02088871    -0.08300
C3652       C  0.47902839  0.77619294  0.02253659    -0.05700
C3653       C  0.49515513  0.79852145  0.02513858     0.00200
C3654       C  0.52294170  0.79512584  0.02476609    -0.08300
C3655       C  0.54203748  0.81792125  0.02755736     0.62100
H3656       H  0.55432864  0.76692343  0.02242643     0.12800
H3657       H  0.45789814  0.77879712  0.02290285     0.12800
C3658       C  0.47032558  0.72760820  0.01954954     0.62400
F3659       F  0.56798801  0.81014122  0.02459670    -0.22800
F3660       F  0.53961667  0.82891063  0.05226239    -0.20100
F3661       F  0.53688185  0.83660795  0.00855949    -0.19800
F3662       F  0.47184699  0.71310850  0.04246214    -0.19900
F3663       F  0.47641423  0.71191485  0.99829207    -0.20200
F3664       F  0.44447234  0.73573434  0.01665171    -0.22900
C3665       C  0.58675034  0.58979954  0.03760496    -0.05700
C3666       C  0.59789623  0.61344077  0.04575726     0.00200
C3667       C  0.62267718  0.61323189  0.05877535    -0.08300
C3668       C  0.63587428  0.58908540  0.06202360    -0.05700
C3669       C  0.62511178  0.56546518  0.05282585     0.00200
C3670       C  0.59960564  0.56574218  0.04103288    -0.08300
C3671       C  0.58526350  0.54097276  0.03241591     0.62100
H3672       H  0.56780638  0.59040226  0.02786137     0.12800
H3673       H  0.65498850  0.58854097  0.07142056     0.12800
C3674       C  0.63499993  0.63808383  0.06972202     0.62400
F3675       F  0.55934649  0.54590731  0.02555688    -0.22800
F3676       F  0.58492065  0.52297090  0.05273569    -0.20100
F3677       F  0.59756047  0.53028973  0.01068700    -0.19800
F3678       F  0.65691957  0.63270415  0.08498008    -0.19900
F3679       F  0.61702149  0.65118897  0.08532615    -0.20200
F3680       F  0.64283978  0.65424150  0.04937452    -0.22900
C3681       C  0.39422486  0.46278952  0.21305598    -0.05700
C3682       C  0.40326027  0.46883411  0.18782971     0.00200
C3683       C  0.38478387  0.47353519  0.16733802    -0.08300
C3684       C  0.35803822  0.46855388  0.17219018    -0.05700
C3685       C  0.34923097  0.46055932  0.19696094     0.00200
C3686       C  0.36726374  0.45985995  0.21831586    -0.08300
C3687       C  0.35836395  0.45675667  0.24664403     0.62100
H3688       H  0.40847190  0.46049331  0.22874003     0.12800
H3689       H  0.34388214  0.46999407  0.15635939     0.12800
C3690       C  0.39303162  0.48302908  0.14025251     0.62400
F3691       F  0.37741862  0.46557779  0.26396090    -0.22800
F3692       F  0.35345254  0.43066323  0.25210724    -0.20100
F3693       F  0.33581395  0.47136844  0.25104450    -0.19800
F3694       F  0.41104815  0.46588852  0.12942888    -0.19900
F3695       F  0.40410376  0.50770523  0.14219528    -0.20200
F3696       F  0.37187562  0.48484482  0.12319274    -0.22900
C3697       C  0.48321416  0.49180612  0.26302545    -0.05700
C3698       C  0.49501689  0.50453051  0.24157356     0.00200
C3699       C  0.50951405  0.52775287  0.24595819    -0.08300
C3700       C  0.51001861  0.53844580  0.27148491    -0.05700
C3701       C  0.49648805  0.52682977  0.29277153     0.00200
C3702       C  0.48353709  0.50244532  0.28857055    -0.08300
C3703       C  0.46929076  0.48787502  0.31039173     0.62100
H3704       H  0.47267428  0.47373607  0.25932311     0.12800
H3705       H  0.52045374  0.55664668  0.27474091     0.12800
C3706       C  0.52479337  0.54091052  0.22397073     0.62400
F3707       F  0.45906194  0.46419702  0.30189211    -0.22800
F3708       F  0.44856352  0.50287656  0.31958886    -0.20100
F3709       F  0.48663049  0.48252955  0.33065280    -0.19800
F3710       F  0.50757338  0.55119034  0.20563606    -0.19900
F3711       F  0.54106757  0.52278212  0.21193479    -0.20200
F3712       F  0.54038138  0.56117272  0.23317463    -0.22900
C3713       C  0.56956811  0.49421013  0.14820912    -0.05700
C3714       C  0.55516123  0.47095764  0.14524870     0.00200
C3715       C  0.56402419  0.45174352  0.12719714    -0.08300
C3716       C  0.58589176  0.45751049  0.11113640    -0.05700
C3717       C  0.59961834  0.48127266  0.11337344     0.00200
C3718       C  0.59205371  0.49955319  0.13303587    -0.08300
C3719       C  0.60696265  0.52501562  0.13757039     0.62100
H3720       H  0.56252082  0.50858024  0.16219260     0.12800
H3721       H  0.59243938  0.44349059  0.09656563     0.12800
C3722       C  0.54997196  0.42571090  0.12424326     0.62400
F3723       F  0.59449308  0.54096961  0.15570785    -0.22800
F3724       F  0.60900903  0.53887221  0.11430223    -0.20100
F3725       F  0.63184838  0.51955241  0.14713678    -0.19800
F3726       F  0.52436377  0.42987255  0.11616344    -0.19900
F3727       F  0.54992949  0.41268175  0.14806834    -0.20200
F3728       F  0.56212351  0.40970177  0.10594946    -0.22900
C3729       C  0.46385585  0.34084816  0.89745926    -0.05700
C3730       C  0.44254618  0.33735463  0.91492104     0.00200
C3731       C  0.41810158  0.32839286  0.90491179    -0.08300
C3732       C  0.41561741  0.32483163  0.87767539    -0.05700
C3733       C  0.43626875  0.33037914  0.86020756     0.00200
C3734       C  0.46114803  0.33752748  0.87018800    -0.08300
C3735       C  0.48477990  0.34107100  0.85229317     0.62100
H3736       H  0.48267310  0.34703496  0.90527582     0.12800
H3737       H  0.39702211  0.31840859  0.86960637     0.12800
C3738       C  0.39437951  0.32348674  0.92240311     0.62400
F3739       F  0.50786713  0.34419161  0.86639899    -0.22800
F3740       F  0.48132434  0.36305802  0.83678264    -0.20100
F3741       F  0.48765505  0.31924200  0.83643094    -0.19800
F3742       F  0.38741720  0.34638452  0.93518268    -0.19900
F3743       F  0.40031880  0.30424342  0.94062179    -0.20200
F3744       F  0.37270515  0.31508409  0.90823383    -0.22900
C3745       C  0.51831192  0.29985566  0.98241503    -0.05700
C3746       C  0.50078143  0.30543759  0.00292540     0.00200
C3747       C  0.49804148  0.28721233  0.02390744    -0.08300
C3748       C  0.51201748  0.26332566  0.02276271    -0.05700
C3749       C  0.52847501  0.25735206  0.00153437     0.00200
C3750       C  0.53197332  0.27593673  0.98113200    -0.08300
C3751       C  0.54870324  0.26982045  0.95720504     0.62100
H3752       H  0.52005092  0.31381745  0.96647231     0.12800
H3753       H  0.50984748  0.24889761  0.03823680     0.12800
C3754       C  0.48070247  0.29288078  0.04750934     0.62400
F3755       F  0.54892692  0.29030006  0.93934143    -0.22800
F3756       F  0.53863061  0.24800735  0.94468045    -0.20100
F3757       F  0.57440737  0.26500669  0.96469112    -0.19800
F3758       F  0.45449640  0.29066350  0.04056774    -0.19900
F3759       F  0.48553003  0.31794604  0.05669315    -0.20200
F3760       F  0.48551564  0.27551560  0.06787600    -0.22900
C3761       C  0.47116765  0.44364038  0.08114520    -0.05700
C3762       C  0.46259247  0.43234025  0.10465024     0.00200
C3763       C  0.44992266  0.40747882  0.10403489    -0.08300
C3764       C  0.44856223  0.39385934  0.08003051    -0.05700
C3765       C  0.45888477  0.40439832  0.05675586     0.00200
C3766       C  0.46930641  0.43038336  0.05706870    -0.08300
C3767       C  0.47817505  0.44465596  0.03233074     0.62100
H3768       H  0.48033075  0.46278660  0.08192280     0.12800
H3769       H  0.43990584  0.37447125  0.07944053     0.12800
C3770       C  0.43763788  0.39521527  0.12834212     0.62400
F3771       F  0.48342671  0.47087386  0.03704060    -0.22800
F3772       F  0.45859189  0.44359240  0.01348916    -0.20100
F3773       F  0.50097658  0.43337573  0.02273150    -0.19800
F3774       F  0.42283741  0.41362475  0.14174302    -0.19900
F3775       F  0.45715144  0.38559009  0.14463939    -0.20200
F3776       F  0.42105831  0.37465050  0.12192489    -0.22900
C3777       C  0.32569834  0.62815872  0.92018402    -0.05700
C3778       C  0.32557087  0.61794314  0.94576715     0.00200
C3779       C  0.32170332  0.63508433  0.96743822    -0.08300
C3780       C  0.31859937  0.66203040  0.96255260    -0.05700
C3781       C  0.31927912  0.67214726  0.93705850     0.00200
C3782       C  0.32289124  0.65511078  0.91541515    -0.08300
C3783       C  0.32511798  0.66549015  0.88754196     0.62100
H3784       H  0.32895006  0.61489820  0.90390791     0.12800
H3785       H  0.31560287  0.67545991  0.97866823     0.12800
C3786       C  0.32052954  0.62525114  0.99558915     0.62400
F3787       F  0.33001494  0.64570292  0.86959511    -0.22800
F3788       F  0.34568655  0.68313374  0.88620684    -0.20100
F3789       F  0.30199467  0.67779600  0.88026510    -0.19800
F3790       F  0.34539209  0.61778368  0.00374992    -0.19900
F3791       F  0.30353327  0.60413958  0.99736886    -0.20200
F3792       F  0.31157417  0.64442216  0.01263054    -0.22900
C3793       C  0.40060726  0.43400877  0.94489496    -0.05700
C3794       C  0.40098326  0.42341643  0.97030669     0.00200
C3795       C  0.38379482  0.43354341  0.98975643    -0.08300
C3796       C  0.36865626  0.45573866  0.98365895    -0.05700
C3797       C  0.36940929  0.46736267  0.95871475     0.00200
C3798       C  0.38448244  0.45556290  0.93849633    -0.08300
C3799       C  0.38421692  0.46607451  0.91062137     0.62100
H3800       H  0.41329057  0.42535977  0.93015902     0.12800
H3801       H  0.35662172  0.46482491  0.99867342     0.12800
C3802       C  0.38215523  0.42179441  0.01715354     0.62400
F3803       F  0.40009393  0.45143067  0.89410226    -0.22800
F3804       F  0.39315855  0.49165991  0.91027084    -0.20100
F3805       F  0.35883336  0.46518044  0.90083504    -0.19800
F3806       F  0.40680480  0.42149937  0.02857926    -0.19900
F3807       F  0.37252741  0.39649212  0.01572007    -0.20200
F3808       F  0.36556329  0.43597462  0.03338458    -0.22900
C3809       C  0.63959079  0.60249747  0.80708875    -0.05700
C3810       C  0.65770797  0.59128829  0.82485932     0.00200
C3811       C  0.64833828  0.57407273  0.84467207    -0.08300
C3812       C  0.62117138  0.56954314  0.84627739    -0.05700
C3813       C  0.60303494  0.58189943  0.82943578     0.00200
C3814       C  0.61237131  0.59839787  0.80911782    -0.08300
C3815       C  0.59403723  0.61197298  0.78977923     0.62100
H3816       H  0.64678009  0.61555136  0.79195483     0.12800
H3817       H  0.61375166  0.55699043  0.86173048     0.12800
C3818       C  0.66637184  0.56082949  0.86453445     0.62400
F3819       F  0.57972337  0.63115761  0.80259520    -0.22800
F3820       F  0.57707565  0.59388550  0.77869448    -0.20100
F3821       F  0.60770420  0.62395108  0.76953609    -0.19800
F3822       F  0.67768269  0.57952140  0.88063791    -0.19900
F3823       F  0.68578885  0.54687146  0.85160583    -0.20200
F3824       F  0.65293036  0.54338749  0.88049338    -0.22900
C3825       C  0.52387828  0.54246731  0.76096939    -0.05700
C3826       C  0.51646619  0.52931793  0.78410679     0.00200
C3827       C  0.50903710  0.50259392  0.78254225    -0.08300
C3828       C  0.50971882  0.49005266  0.75789961    -0.05700
C3829       C  0.51860646  0.50271828  0.73486637     0.00200
C3830       C  0.52570564  0.52967007  0.73648715    -0.08300
C3831       C  0.53609889  0.54495956  0.71304287     0.62100
H3832       H  0.52961674  0.56284263  0.76248737     0.12800
H3833       H  0.50429163  0.46958050  0.75681169     0.12800
C3834       C  0.50080144  0.48703217  0.80664651     0.62400
F3835       F  0.54110995  0.57093052  0.71915843    -0.22800
F3836       F  0.51776556  0.54464211  0.69296336    -0.20100
F3837       F  0.55948473  0.53397254  0.70451537    -0.19800
F3838       F  0.48157199  0.50046368  0.82032742    -0.19900
F3839       F  0.52235618  0.48301774  0.82273906    -0.20200
F3840       F  0.49068380  0.46270552  0.80007668    -0.22900
C3841       C  0.45759805  0.56748833  0.90957712    -0.05700
C3842       C  0.45623639  0.56548593  0.88219531     0.00200
C3843       C  0.43194787  0.56073447  0.86983369    -0.08300
C3844       C  0.40966759  0.55670971  0.88568400    -0.05700
C3845       C  0.41093025  0.55777894  0.91339524     0.00200
C3846       C  0.43534471  0.56417702  0.92558536    -0.08300
C3847       C  0.43846542  0.56744795  0.95512988     0.62100
H3848       H  0.47661161  0.57146669  0.91836116     0.12800
H3849       H  0.39103543  0.55245774  0.87632100     0.12800
C3850       C  0.42983244  0.55933828  0.84016117     0.62400
F3851       F  0.46374346  0.57492323  0.96201678    -0.22800
F3852       F  0.43319509  0.54396921  0.96768119    -0.20100
F3853       F  0.42151141  0.58671069  0.96407422    -0.19800
F3854       F  0.44689252  0.54051591  0.83061517    -0.19900
F3855       F  0.43630939  0.58339637  0.82944123    -0.20200
F3856       F  0.40464167  0.55293954  0.83203565    -0.22900
C3857       C  0.53044579  0.64005283  0.91576311    -0.05700
C3858       C  0.54439731  0.61625152  0.91364651     0.00200
C3859       C  0.56322778  0.60973645  0.93332158    -0.08300
C3860       C  0.56682742  0.62712577  0.95451791    -0.05700
C3861       C  0.55194143  0.65013076  0.95700198     0.00200
C3862       C  0.53354976  0.65686585  0.93739265    -0.08300
C3863       C  0.51698286  0.68149569  0.93968541     0.62100
H3864       H  0.51616263  0.64499151  0.90077156     0.12800
H3865       H  0.58033433  0.62216832  0.97023547     0.12800
C3866       C  0.57931605  0.58461452  0.93243852     0.62400
F3867       F  0.50158628  0.68556610  0.91761503    -0.22800
F3868       F  0.53321493  0.70302268  0.94283428    -0.20100
F3869       F  0.50047815  0.67946849  0.96114648    -0.19800
F3870       F  0.59247399  0.58286450  0.90872585    -0.19900
F3871       F  0.56292169  0.56319233  0.93548360    -0.20200
F3872       F  0.59792924  0.58364778  0.95229474    -0.22900
C3873       C  0.06401644  0.71970499  0.40307900    -0.05700
C3874       C  0.06368515  0.69399608  0.41265803     0.00200
C3875       C  0.06497250  0.67257899  0.39492388    -0.08300
C3876       C  0.06878433  0.67781214  0.36817269    -0.05700
C3877       C  0.07037470  0.70350748  0.35865794     0.00200
C3878       C  0.06649831  0.72489826  0.37608602    -0.08300
C3879       C  0.06399379  0.75294430  0.36633392     0.62100
H3880       H  0.06211214  0.73571430  0.41692505     0.12800
H3881       H  0.07127656  0.66175689  0.35449635     0.12800
C3882       C  0.06294356  0.64427999  0.40407023     0.62400
F3883       F  0.05341627  0.76919268  0.38538315    -0.22800
F3884       F  0.04747077  0.75379838  0.34473483    -0.20100
F3885       F  0.08844889  0.76266003  0.35953078    -0.19800
F3886       F  0.03806194  0.63959631  0.41396629    -0.19900
F3887       F  0.08137606  0.63939256  0.42331152    -0.20200
F3888       F  0.06734303  0.62669962  0.38383614    -0.22900
C3889       C  0.98004259  0.77446392  0.50261993    -0.05700
C3890       C  0.99512534  0.79750542  0.49980274     0.00200
C3891       C  0.02299712  0.79523045  0.49887718    -0.08300
C3892       C  0.03432501  0.76999947  0.49940605    -0.05700
C3893       C  0.01909221  0.74693268  0.50059952     0.00200
C3894       C  0.99135351  0.74926425  0.50296708    -0.08300
C3895       C  0.97341817  0.72554601  0.50560588     0.62100
H3896       H  0.95884411  0.77617309  0.50360123     0.12800
H3897       H  0.05548358  0.76815197  0.49787153     0.12800
C3898       C  0.04101310  0.81895971  0.49706335     0.62400
F3899       F  0.94766550  0.73264148  0.51097998    -0.22800
F3900       F  0.98201023  0.70973282  0.52597231    -0.20100
F3901       F  0.97334916  0.71149559  0.48239187    -0.19800
F3902       F  0.03543335  0.83624746  0.51722655    -0.19900
F3903       F  0.03759172  0.83129210  0.47310794    -0.20200
F3904       F  0.06732328  0.81212320  0.49912697    -0.22900
C3905       C  0.12414839  0.58518045  0.66905745    -0.05700
C3906       C  0.10844610  0.58799016  0.69153061     0.00200
C3907       C  0.12030052  0.59283914  0.71607446    -0.08300
C3908       C  0.14789679  0.59371230  0.71740383    -0.05700
C3909       C  0.16384397  0.59112686  0.69486915     0.00200
C3910       C  0.15167245  0.58738932  0.67001851    -0.08300
C3911       C  0.16710298  0.58679246  0.64442596     0.62100
H3912       H  0.11443390  0.58178227  0.65042449     0.12800
H3913       H  0.15721830  0.59693259  0.73623915     0.12800
C3914       C  0.10398129  0.59682438  0.74068340     0.62400
F3915       F  0.15075169  0.58543113  0.62270325    -0.22800
F3916       F  0.18343791  0.56510579  0.64391917    -0.20100
F3917       F  0.18192084  0.60940898  0.64205950    -0.19800
F3918       F  0.08761080  0.57550583  0.74445269    -0.19900
F3919       F  0.08898030  0.61930966  0.73811231    -0.20200
F3920       F  0.11954798  0.59956703  0.76283428    -0.22900
C3921       C  0.04793351  0.64769908  0.60889207    -0.05700
C3922       C  0.05049113  0.62008826  0.60811951     0.00200
C3923       C  0.05901584  0.60806802  0.58433487    -0.08300
C3924       C  0.06243050  0.62396983  0.56201035    -0.05700
C3925       C  0.05839332  0.65113358  0.56275467     0.00200
C3926       C  0.05184779  0.66342756  0.58653430    -0.08300
C3927       C  0.04840533  0.69290892  0.58787438     0.62100
H3928       H  0.04216469  0.65704221  0.62706689     0.12800
H3929       H  0.06757509  0.61519027  0.54332936     0.12800
C3930       C  0.06437871  0.57880987  0.58195928     0.62400
F3931       F  0.04188455  0.70121547  0.61291073    -0.22800
F3932       F  0.02860877  0.70067812  0.57090564    -0.20100
F3933       F  0.07167330  0.70498749  0.58065561    -0.19800
F3934       F  0.04130512  0.56487752  0.58551432    -0.19900
F3935       F  0.08278487  0.57125040  0.60051959    -0.20200
F3936       F  0.07431842  0.57221505  0.55751637    -0.22900
C3937       C  0.18986525  0.41586280  0.43176460    -0.05700
C3938       C  0.18911310  0.42248267  0.45841123     0.00200
C3939       C  0.19123638  0.40251547  0.47780639    -0.08300
C3940       C  0.19333083  0.37630181  0.46949325    -0.05700
C3941       C  0.19341746  0.36985227  0.44278683     0.00200
C3942       C  0.19169007  0.38982365  0.42352776    -0.08300
C3943       C  0.19028303  0.38364412  0.39438276     0.62100
H3944       H  0.18786505  0.43128762  0.41726831     0.12800
H3945       H  0.19500973  0.36061565  0.48375855     0.12800
C3946       C  0.19172236  0.40864049  0.50700690     0.62400
F3947       F  0.18455883  0.40563828  0.37947140    -0.22800
F3948       F  0.17062353  0.36545962  0.39005317    -0.20100
F3949       F  0.21410098  0.37375918  0.38578384    -0.19800
F3950       F  0.16686547  0.41584087  0.51537617    -0.19900
F3951       F  0.20924207  0.42880634  0.51193683    -0.20200
F3952       F  0.19956155  0.38714681  0.52169687    -0.22900
C3953       C  0.25144456  0.51966723  0.49844399    -0.05700
C3954       C  0.22935194  0.51211448  0.51348307     0.00200
C3955       C  0.23281499  0.50752685  0.54079340    -0.08300
C3956       C  0.25844159  0.50906633  0.55135600    -0.05700
C3957       C  0.28069223  0.51453282  0.53573575     0.00200
C3958       C  0.27701867  0.52072116  0.50889201    -0.08300
C3959       C  0.29979178  0.52813409  0.49101336     0.62100
H3960       H  0.24887551  0.52366872  0.47774251     0.12800
H3961       H  0.26143422  0.50462511  0.57192885     0.12800
C3962       C  0.21003136  0.50059658  0.55885585     0.62400
F3963       F  0.29115832  0.53759640  0.46701065    -0.22800
F3964       F  0.31528236  0.50636098  0.48622046    -0.20100
F3965       F  0.31478886  0.54753720  0.50266412    -0.19800
F3966       F  0.19987808  0.47637639  0.55208846    -0.19900
F3967       F  0.19059190  0.51950530  0.55690606    -0.20200
F3968       F  0.21773961  0.49930079  0.58491513    -0.22900
C3969       C  0.14034390  0.58821234  0.46816417    -0.05700
C3970       C  0.12816547  0.56518376  0.47694710     0.00200
C3971       C  0.10163055  0.56602638  0.48582929    -0.08300
C3972       C  0.08857887  0.59020543  0.48602602    -0.05700
C3973       C  0.10101280  0.61343731  0.47820237     0.00200
C3974       C  0.12742860  0.61257808  0.46894978    -0.08300
C3975       C  0.14237425  0.63694649  0.46029494     0.62100
H3976       H  0.16051400  0.58704793  0.46138528     0.12800
H3977       H  0.06855550  0.59126623  0.49322895     0.12800
C3978       C  0.08669031  0.54172934  0.49479928     0.62400
F3979       F  0.16608558  0.63070366  0.44842790    -0.22800
F3980       F  0.14779251  0.65243037  0.48189200    -0.20100
F3981       F  0.12775480  0.65114967  0.44236261    -0.19800
F3982       F  0.09735307  0.53238618  0.51798102    -0.19900
F3983       F  0.08797511  0.52253946  0.47568718    -0.20200
F3984       F  0.06032966  0.54692984  0.49938727    -0.22900
C3985       C  0.90169325  0.47101625  0.31998591    -0.05700
C3986       C  0.91290628  0.45898361  0.34200886     0.00200
C3987       C  0.89677654  0.44628223  0.36073968    -0.08300
C3988       C  0.86955600  0.44546849  0.35638503    -0.05700
C3989       C  0.85838455  0.45660838  0.33387199     0.00200
C3990       C  0.87445769  0.46978965  0.31536690    -0.08300
C3991       C  0.86284220  0.48274343  0.29113820     0.62100
H3992       H  0.91450921  0.48113182  0.30633003     0.12800
H3993       H  0.85684875  0.43514398  0.36999755     0.12800
C3994       C  0.90832827  0.43367316  0.38515173     0.62400
F3995       F  0.88150248  0.49712750  0.27752621    -0.22800
F3996       F  0.84279559  0.49957279  0.29846990    -0.20100
F3997       F  0.85291019  0.46393091  0.27433409    -0.19800
F3998       F  0.92026199  0.45266456  0.40036154    -0.19900
F3999       F  0.92672161  0.41499891  0.37803230    -0.20200
F4000       F  0.88928405  0.42148205  0.40029221    -0.22900
C4001       C  0.06533214  0.45367167  0.40787001    -0.05700
C4002       C  0.06236139  0.47079412  0.38648046     0.00200
C4003       C  0.08083560  0.49099878  0.38235271    -0.08300
C4004       C  0.10155637  0.49382102  0.40036357    -0.05700
C4005       C  0.10378185  0.47774734  0.42278679     0.00200
C4006       C  0.08558034  0.45700359  0.42647784    -0.08300
C4007       C  0.08713378  0.43870831  0.44994933     0.62100
H4008       H  0.05053126  0.43867050  0.41083592     0.12800
H4009       H  0.11564068  0.50950445  0.39758111     0.12800
C4010       C  0.07841979  0.50964605  0.35920138     0.62400
F4011       F  0.06913975  0.41841276  0.44813022    -0.22800
F4012       F  0.08173703  0.45250280  0.47268409    -0.20100
F4013       F  0.11203060  0.42781715  0.45158646    -0.19800
F4014       F  0.05634802  0.52523132  0.36211857    -0.19900
F4015       F  0.07627317  0.49545929  0.33616471    -0.20200
F4016       F  0.10010817  0.52593504  0.35705872    -0.22900
C4017       C  0.91734287  0.32639516  0.65416637    -0.05700
C4018       C  0.93811641  0.33256973  0.67124345     0.00200
C4019       C  0.96268897  0.34016438  0.66085644    -0.08300
C4020       C  0.96464957  0.34409639  0.63364293    -0.05700
C4021       C  0.94298389  0.34054442  0.61662573     0.00200
C4022       C  0.91907083  0.33046093  0.62698106    -0.08300
C4023       C  0.89508032  0.32470173  0.61006876     0.62100
H4024       H  0.89906594  0.31941631  0.66254911     0.12800
H4025       H  0.98320929  0.35070081  0.62558761     0.12800
C4026       C  0.98689084  0.34319631  0.67813744     0.62400
F4027       F  0.87441913  0.31453685  0.62459810    -0.22800
F4028       F  0.90147427  0.30642564  0.59107057    -0.20100
F4029       F  0.88629545  0.34754724  0.59831290    -0.19800
F4030       F  0.99010343  0.32096781  0.69341910    -0.19900
F4031       F  0.98418401  0.36482724  0.69422837    -0.20200
F4032       F  0.00955714  0.34649647  0.66340711    -0.22900
C4033       C  0.01846014  0.29908424  0.52473077    -0.05700
C4034       C  0.99097410  0.29867403  0.52758685     0.00200
C4035       C  0.97789390  0.27399264  0.52849160    -0.08300
C4036       C  0.99295738  0.25092012  0.52641697    -0.05700
C4037       C  0.02054362  0.25122056  0.52428997     0.00200
C4038       C  0.03362726  0.27595368  0.52321618    -0.08300
C4039       C  0.06338575  0.27848519  0.52090280     0.62100
H4040       H  0.02813935  0.31796502  0.52403475     0.12800
H4041       H  0.98309495  0.23214100  0.52704197     0.12800
C4042       C  0.94833852  0.27149861  0.53280205     0.62400
F4043       F  0.07152563  0.30439253  0.52089814    -0.22800
F4044       F  0.07179179  0.26726567  0.49766597    -0.20100
F4045       F  0.07551450  0.26627172  0.54188357    -0.19800
F4046       F  0.93491574  0.28218805  0.51172489    -0.19900
F4047       F  0.94125775  0.28425893  0.55569683    -0.20200
F4048       F  0.94042488  0.24563110  0.53519627    -0.22900
C4049       C  0.96383444  0.42685935  0.47300808    -0.05700
C4050       C  0.96145735  0.39955031  0.47164734     0.00200
C4051       C  0.96351287  0.38678819  0.44722594    -0.08300
C4052       C  0.96945911  0.40193446  0.42488096    -0.05700
C4053       C  0.97254899  0.42945504  0.42611959     0.00200
C4054       C  0.96875629  0.44228663  0.45066338    -0.08300
C4055       C  0.96987278  0.47192854  0.45378933     0.62100
H4056       H  0.96171309  0.43604653  0.49203315     0.12800
H4057       H  0.97159722  0.39219507  0.40613506     0.12800
C4058       C  0.95989563  0.35734389  0.44498914     0.62400
F4059       F  0.96567197  0.47966695  0.47951005    -0.22800
F4060       F  0.95050315  0.48351150  0.43859930    -0.20100
F4061       F  0.99436050  0.48110747  0.44629638    -0.19800
F4062       F  0.93447738  0.35077027  0.45211927    -0.19900
F4063       F  0.97744503  0.34459921  0.46140567    -0.20200
F4064       F  0.96408581  0.34852081  0.41963376    -0.22900
C4065       C  0.84599781  0.63942626  0.58693692    -0.05700
C4066       C  0.82464052  0.62203258  0.58660794     0.00200
C4067       C  0.79867007  0.63169262  0.58745177    -0.08300
C4068       C  0.79496624  0.65893669  0.58889889    -0.05700
C4069       C  0.81636784  0.67652086  0.58973555     0.00200
C4070       C  0.84243030  0.66663477  0.58873613    -0.08300
C4071       C  0.86641749  0.68434581  0.59028972     0.62100
H4072       H  0.86570249  0.63133992  0.58587711     0.12800
H4073       H  0.77515137  0.66673595  0.58973429     0.12800
C4074       C  0.77514597  0.61338306  0.58640258     0.62400
F4075       F  0.88965841  0.67016330  0.59108324    -0.22800
F4076       F  0.86525950  0.69946552  0.61280135    -0.20100
F4077       F  0.86727854  0.70044305  0.56844198    -0.19800
F4078       F  0.77507455  0.59742540  0.60836243    -0.19900
F4079       F  0.77649548  0.59796800  0.56410430    -0.20200
F4080       F  0.75156732  0.62700702  0.58579094    -0.22900
C4081       C  0.78085093  0.54078074  0.50719627    -0.05700
C4082       C  0.78105343  0.53258656  0.53360043     0.00200
C4083       C  0.75756163  0.52150506  0.54433403    -0.08300
C4084       C  0.73491727  0.51998306  0.52841559    -0.05700
C4085       C  0.73462230  0.52900113  0.50243837     0.00200
C4086       C  0.75807188  0.53945551  0.49144742    -0.08300
C4087       C  0.75892495  0.55045076  0.46368609     0.62100
H4088       H  0.79866211  0.54906084  0.49903101     0.12800
H4089       H  0.71677779  0.51219267  0.53639471     0.12800
C4090       C  0.75567341  0.51162664  0.57247797     0.62400
F4091       F  0.78299442  0.56179875  0.45791648    -0.22800
F4092       F  0.73980415  0.56953715  0.46072662    -0.20100
F4093       F  0.75469406  0.53056026  0.44575543    -0.19800
F4094       F  0.75829008  0.53240336  0.58972278    -0.19900
F4095       F  0.77510958  0.49319857  0.57716052    -0.20200
F4096       F  0.73169566  0.49977058  0.57759678    -0.22900
C4097       C  0.88425877  0.43010133  0.56254673    -0.05700
C4098       C  0.91197712  0.43220690  0.56097606     0.00200
C4099       C  0.92380091  0.45731214  0.56399251    -0.08300
C4100       C  0.90734577  0.47919617  0.56692202    -0.05700
C4101       C  0.87990340  0.47697871  0.56830552     0.00200
C4102       C  0.86796493  0.45215733  0.56626810    -0.08300
C4103       C  0.83824192  0.44928207  0.56668553     0.62100
H4104       H  0.87528188  0.41096984  0.56053174     0.12800
H4105       H  0.91586813  0.49861437  0.56825240     0.12800
C4106       C  0.95344347  0.46157468  0.56392065     0.62400
F4107       F  0.83048941  0.42359965  0.56256573    -0.22800
F4108       F  0.82723560  0.46463319  0.54713061    -0.20100
F4109       F  0.82855353  0.45721653  0.59076809    -0.19800
F4110       F  0.96399160  0.45335047  0.54030774    -0.19900
F4111       F  0.96478069  0.44779524  0.58441981    -0.20200
F4112       F  0.96006248  0.48771736  0.56712486    -0.22900
C4113       C  0.92294829  0.58830253  0.61781146    -0.05700
C4114       C  0.91074609  0.56374115  0.62042562     0.00200
C4115       C  0.92155663  0.54491270  0.63792463    -0.08300
C4116       C  0.94494444  0.55102002  0.65129561    -0.05700
C4117       C  0.95752630  0.57527188  0.64822000     0.00200
C4118       C  0.94614860  0.59456298  0.63167799    -0.08300
C4119       C  0.95897912  0.62114831  0.62784269     0.62100
H4120       H  0.91419864  0.60250790  0.60460426     0.12800
H4121       H  0.95404361  0.53656833  0.66399402     0.12800
C4122       C  0.90928213  0.51801873  0.64169555     0.62400
F4123       F  0.94511540  0.63663362  0.61028734    -0.22800
F4124       F  0.98421982  0.61796436  0.61820750    -0.20100
F4125       F  0.96000148  0.63424703  0.65158065    -0.19800
F4126       F  0.90631407  0.50590561  0.61769153    -0.19900
F4127       F  0.88496811  0.52046845  0.65359854    -0.20200
F4128       F  0.92468499  0.50188278  0.65728843    -0.22900
C4129       C  0.90829490  0.71380678  0.88035631    -0.05700
C4130       C  0.93007104  0.71922632  0.86432218     0.00200
C4131       C  0.95557692  0.71985052  0.87518066    -0.08300
C4132       C  0.95857517  0.71411185  0.90202844    -0.05700
C4133       C  0.93689269  0.70769738  0.91803175     0.00200
C4134       C  0.91123179  0.70762596  0.90711380    -0.08300
C4135       C  0.88727374  0.69968501  0.92309608     0.62100
H4136       H  0.88893068  0.71363633  0.87142770     0.12800
H4137       H  0.97806430  0.71404149  0.91066320     0.12800
C4138       C  0.97928941  0.72680325  0.85846648     0.62400
F4139       F  0.86464136  0.69899661  0.90796209    -0.22800
F4140       F  0.88327262  0.71747857  0.94316750    -0.20100
F4141       F  0.89105031  0.67493277  0.93359017    -0.19800
F4142       F  0.97562027  0.75123757  0.84722386    -0.19900
F4143       F  0.98242639  0.70839123  0.83880625    -0.20200
F4144       F  0.00223807  0.72751011  0.87311605    -0.22900
C4145       C  0.02299889  0.74260275  0.00726137    -0.05700
C4146       C  0.99587023  0.74390101  0.00239450     0.00200
C4147       C  0.98379527  0.76891959  0.99932001    -0.08300
C4148       C  0.99954056  0.79151128  0.00075048    -0.05700
C4149       C  0.02688337  0.79037642  0.00464673     0.00200
C4150       C  0.03884614  0.76531158  0.00866378    -0.08300
C4151       C  0.06809746  0.76200119  0.01414101     0.62100
H4152       H  0.03178141  0.72340593  0.00968299     0.12800
H4153       H  0.99044390  0.81050274  0.99806729     0.12800
C4154       C  0.95460452  0.77214987  0.99326732     0.62400
F4155       F  0.07467755  0.73618350  0.01947250    -0.22800
F4156       F  0.07515661  0.77677574  0.03579422    -0.20100
F4157       F  0.08255005  0.76980290  0.99249000    -0.19800
F4158       F  0.93975062  0.76403454  0.01451890    -0.19900
F4159       F  0.94805122  0.75757579  0.97133259    -0.20200
F4160       F  0.94793110  0.79797237  0.98810428    -0.22900
C4161       C  0.90227694  0.58930172  0.21191657    -0.05700
C4162       C  0.91103803  0.58209703  0.18691942     0.00200
C4163       C  0.89273037  0.57984122  0.16597997    -0.08300
C4164       C  0.86605490  0.58471929  0.17110228    -0.05700
C4165       C  0.85707990  0.59197790  0.19612323     0.00200
C4166       C  0.87555123  0.59422817  0.21710939    -0.08300
C4167       C  0.86759118  0.60163443  0.24492998     0.62100
H4168       H  0.91674165  0.59105039  0.22744559     0.12800
H4169       H  0.85192652  0.58321018  0.15526594     0.12800
C4170       C  0.90112876  0.57318244  0.13808080     0.62400
F4171       F  0.88841048  0.59959236  0.26237672    -0.22800
F4172       F  0.84787143  0.58511116  0.25370475    -0.20100
F4173       F  0.85892235  0.62734191  0.24544390    -0.19800
F4174       F  0.90995333  0.54757500  0.13696886    -0.19900
F4175       F  0.92095943  0.58984693  0.13006644    -0.20200
F4176       F  0.88059976  0.57575202  0.12036448    -0.22900
C4177       C  0.99103845  0.50576941  0.24067755    -0.05700
C4178       C  0.99964413  0.53199841  0.24022100     0.00200
C4179       C  0.01041112  0.54283566  0.26372971    -0.08300
C4180       C  0.01019608  0.52762540  0.28689896    -0.05700
C4181       C  0.00039183  0.50193073  0.28752340     0.00200
C4182       C  0.99126389  0.49046518  0.26377149    -0.08300
C4183       C  0.98077277  0.46257097  0.26273663     0.62100
H4184       H  0.98340194  0.49736124  0.22273220     0.12800
H4185       H  0.01740196  0.53593185  0.30509381     0.12800
C4186       C  0.02214291  0.57023792  0.26489227     0.62400
F4187       F  0.97130745  0.45610673  0.23807572    -0.22800
F4188       F  0.96032293  0.45967627  0.28042025    -0.20100
F4189       F  0.00071074  0.44511294  0.26879195    -0.19800
F4190       F  0.00255002  0.58876721  0.26148856    -0.19900
F4191       F  0.04107853  0.57304072  0.24556860    -0.20200
F4192       F  0.03416009  0.57519127  0.28879291    -0.22900
C4193       C  0.95985657  0.65354479  0.08236442    -0.05700
C4194       C  0.96763545  0.64213955  0.05852080     0.00200
C4195       C  0.97855500  0.61638564  0.05872734    -0.08300
C4196       C  0.98199558  0.60357577  0.08292931    -0.05700
C4197       C  0.97496016  0.61524720  0.10680833     0.00200
C4198       C  0.96333018  0.64064311  0.10662524    -0.08300
C4199       C  0.95418848  0.65414883  0.13164018     0.62100
H4200       H  0.95131081  0.67298981  0.08186286     0.12800
H4201       H  0.99073812  0.58421650  0.08342531     0.12800
C4202       C  0.98613775  0.60186291  0.03372262     0.62400
F4203       F  0.94019618  0.67685872  0.12635998    -0.22800
F4204       F  0.97572248  0.66089649  0.14678633    -0.20100
F4205       F  0.93789959  0.63770196  0.14583719    -0.19800
F4206       F  0.00764376  0.61382292  0.02218775    -0.19900
F4207       F  0.96522346  0.60172885  0.01634260    -0.20200
F4208       F  0.99286559  0.57599604  0.03860721    -0.22900
C4209       C  0.21908044  0.65354702  0.09081273    -0.05700
C4210       C  0.20024148  0.67192969  0.08198295     0.00200
C4211       C  0.17800098  0.66281512  0.06774769    -0.08300
C4212       C  0.17480786  0.63570311  0.06449925    -0.05700
C4213       C  0.19257424  0.61736839  0.07506268     0.00200
C4214       C  0.21562434  0.62636950  0.08774565    -0.08300
C4215       C  0.23649001  0.60764482  0.09807294     0.62100
H4216       H  0.23628827  0.66051687  0.10119675     0.12800
H4217       H  0.15742830  0.62851064  0.05455065     0.12800
C4218       C  0.15711852  0.68108004  0.05653064     0.62400
F4219       F  0.25907883  0.62072612  0.10578389    -0.22800
F4220       F  0.24346857  0.58997181  0.07868070    -0.20100
F4221       F  0.22687541  0.59422794  0.11963312    -0.19800
F4222       F  0.16876934  0.69937553  0.04017362    -0.19900
F4223       F  0.14399221  0.69361616  0.07674281    -0.20200
F4224       F  0.13849678  0.66775203  0.04185413    -0.22900
C4225       C  0.27582340  0.51573736  0.01471556    -0.05700
C4226       C  0.27551295  0.52897783  0.99060568     0.00200
C4227       C  0.25169001  0.54019996  0.98141660    -0.08300
C4228       C  0.22931136  0.53900511  0.99759605    -0.05700
C4229       C  0.22987520  0.52707630  0.02250039     0.00200
C4230       C  0.25332138  0.51412316  0.03075120    -0.08300
C4231       C  0.25501667  0.49855669  0.05614982     0.62100
H4232       H  0.29417733  0.50702977  0.02116930     0.12800
H4233       H  0.21133545  0.54845253  0.99121355     0.12800
C4234       C  0.25006005  0.55454692  0.95527975     0.62400
F4235       F  0.27765578  0.48345071  0.05727345    -0.22800
F4236       F  0.23379832  0.48174146  0.05802457    -0.20100
F4237       F  0.25523195  0.51537603  0.07742021    -0.19800
F4238       F  0.25452576  0.53714465  0.93496171    -0.19900
F4239       F  0.26861676  0.57435641  0.95446308    -0.20200
F4240       F  0.22558037  0.56581172  0.95128526    -0.22900
C4241       C  0.10029654  0.54155408  0.13462219    -0.05700
C4242       C  0.10768271  0.56132634  0.11695258     0.00200
C4243       C  0.09365582  0.58532795  0.11645834    -0.08300
C4244       C  0.07153113  0.58807914  0.13286005    -0.05700
C4245       C  0.06288201  0.56736424  0.14882640     0.00200
C4246       C  0.07783677  0.54400754  0.15041913    -0.08300
C4247       C  0.06951849  0.52118770  0.16768572     0.62100
H4248       H  0.11140990  0.52340871  0.13485347     0.12800
H4249       H  0.05970350  0.60573740  0.13188876     0.12800
C4250       C  0.10175119  0.60772014  0.09854852     0.62400
F4251       F  0.09014395  0.50393100  0.17190100    -0.22800
F4252       F  0.04926707  0.50762937  0.15568484    -0.20100
F4253       F  0.06113987  0.53018334  0.19191364    -0.19800
F4254       F  0.09709110  0.60097755  0.07267460    -0.19900
F4255       F  0.12822837  0.61307946  0.10185433    -0.20200
F4256       F  0.08780014  0.63041661  0.10392120    -0.22900
C4257       C  0.80419653  0.38378386  0.94951961    -0.05700
C4258       C  0.82683243  0.36796720  0.95228649     0.00200
C4259       C  0.85130255  0.37997512  0.95839564    -0.08300
C4260       C  0.85230451  0.40744186  0.95981746    -0.05700
C4261       C  0.82997789  0.42308572  0.95556469     0.00200
C4262       C  0.80531856  0.41123506  0.95123756    -0.08300
C4263       C  0.78031848  0.42741378  0.94928678     0.62100
H4264       H  0.78547822  0.37447651  0.94550754     0.12800
H4265       H  0.87085261  0.41712723  0.96379669     0.12800
C4266       C  0.87643436  0.36435455  0.96282824     0.62400
F4267       F  0.75808094  0.41179314  0.94799553    -0.22800
F4268       F  0.78104511  0.44285179  0.92697991    -0.20100
F4269       F  0.77806680  0.44327338  0.97118862    -0.19800
F4270       F  0.88263110  0.35023174  0.94048832    -0.19900
F4271       F  0.87308887  0.34745781  0.98382864    -0.20200
F4272       F  0.89768171  0.38036065  0.96854258    -0.22900
C4273       C  0.75388248  0.50061525  0.98181050    -0.05700
C4274       C  0.77545791  0.51135462  0.99531472     0.00200
C4275       C  0.77131972  0.52293931  0.02016824    -0.08300
C4276       C  0.74612257  0.52130962  0.03158130    -0.05700
C4277       C  0.72480120  0.50863179  0.01907327     0.00200
C4278       C  0.72858547  0.49893541  0.99313222    -0.08300
C4279       C  0.70654232  0.48638434  0.97738265     0.62100
H4280       H  0.75730695  0.49246812  0.96248479     0.12800
H4281       H  0.74322347  0.52945567  0.05097680     0.12800
C4282       C  0.79318205  0.53742202  0.03443005     0.62400
F4283       F  0.71452145  0.47968887  0.95226254    -0.22800
F4284       F  0.68577121  0.50377816  0.97501744    -0.20100
F4285       F  0.69816272  0.46371440  0.98972419    -0.19800
F4286       F  0.80503119  0.55513147  0.01756466    -0.19900
F4287       F  0.81177742  0.51978260  0.04343088    -0.20200
F4288       F  0.78374119  0.55128616  0.05581369    -0.22900
C4289       C  0.87330167  0.58518021  0.98892509    -0.05700
C4290       C  0.87268397  0.57370005  0.96391760     0.00200
C4291       C  0.88782785  0.58492256  0.94335688    -0.08300
C4292       C  0.90445559  0.60632094  0.94920952    -0.05700
C4293       C  0.90571745  0.61703676  0.97455665     0.00200
C4294       C  0.88936751  0.60676371  0.99467072    -0.08300
C4295       C  0.88941732  0.61778492  0.02243522     0.62100
H4296       H  0.86144531  0.57648307  0.00431414     0.12800
H4297       H  0.91661904  0.61492704  0.93401684     0.12800
C4298       C  0.88705457  0.57403544  0.91565761     0.62400
F4299       F  0.87484887  0.60248196  0.03955913    -0.22800
F4300       F  0.87859655  0.64265437  0.02245126    -0.20100
F4301       F  0.91485547  0.61888081  0.03195369    -0.19800
F4302       F  0.86158388  0.57518265  0.90613462    -0.19900
F4303       F  0.89562055  0.54831312  0.91563216    -0.20200
F4304       F  0.90296527  0.58816949  0.89871619    -0.22900
C4305       C  0.04947167  0.35861937  0.12868679    -0.05700
C4306       C  0.06232458  0.34167955  0.11103920     0.00200
C4307       C  0.07527543  0.31916673  0.12085507    -0.08300
C4308       C  0.07768062  0.31630297  0.14814746    -0.05700
C4309       C  0.06711937  0.33473503  0.16590532     0.00200
C4310       C  0.05118582  0.35535104  0.15601763    -0.08300
C4311       C  0.03611482  0.37402189  0.17375970     0.62100
H4312       H  0.03875869  0.37526859  0.12092697     0.12800
H4313       H  0.08888020  0.29989182  0.15569351     0.12800
C4314       C  0.08619920  0.29800120  0.10291483     0.62400
F4315       F  0.01842235  0.38926310  0.15975837    -0.22800
F4316       F  0.05343508  0.39071592  0.18633874    -0.20100
F4317       F  0.02188756  0.35992242  0.19214085    -0.19800
F4318       F  0.10817733  0.30720307  0.08984607    -0.19900
F4319       F  0.06720145  0.29066008  0.08491719    -0.20200
F4320       F  0.09351117  0.27578501  0.11676791    -0.22900
C4321       C  0.98609130  0.26557204  0.01691203    -0.05700
C4322       C  0.00100836  0.24398230  0.02596500     0.00200
C4323       C  0.02786971  0.24818219  0.03277153    -0.08300
C4324       C  0.03838371  0.27359953  0.03024841    -0.05700
C4325       C  0.02306551  0.29529284  0.02262315     0.00200
C4326       C  0.99644248  0.29120022  0.01551218    -0.08300
C4327       C  0.97894639  0.31357701  0.00636597     0.62100
H4328       H  0.96569627  0.26246423  0.01166136     0.12800
H4329       H  0.05873611  0.27697402  0.03549270     0.12800
C4330       C  0.04547030  0.22655469  0.04359475     0.62400
F4331       F  0.95501401  0.30467846  0.99690884    -0.22800
F4332       F  0.99125921  0.32725785  0.98637512    -0.20100
F4333       F  0.97386309  0.33031610  0.02709264    -0.19800
F4334       F  0.04756857  0.20646725  0.02549203    -0.19900
F4335       F  0.03508054  0.21707810  0.06685395    -0.20200
F4336       F  0.07068859  0.23536232  0.04894324    -0.22900
C4337       C  0.10899364  0.47078405  0.07620145    -0.05700
C4338       C  0.13443708  0.47189513  0.06562520     0.00200
C4339       C  0.14416207  0.45081916  0.05070447    -0.08300
C4340       C  0.12756604  0.42937907  0.04594566    -0.05700
C4341       C  0.10152860  0.42843749  0.05553724     0.00200
C4342       C  0.09227844  0.44922028  0.07168549    -0.08300
C4343       C  0.06518162  0.44886939  0.08426220     0.62100
H4344       H  0.10201886  0.48748008  0.08736635     0.12800
H4345       H  0.13479832  0.41334601  0.03404820     0.12800
C4346       C  0.17191949  0.45123893  0.03978512     0.62400
F4347       F  0.06176159  0.46954614  0.10154607    -0.22800
F4348       F  0.06181079  0.42583508  0.09823085    -0.20100
F4349       F  0.04602190  0.45084704  0.06507662    -0.19800
F4350       F  0.18955859  0.45265480  0.06038834    -0.19900
F4351       F  0.17524241  0.47277988  0.02359885    -0.20200
F4352       F  0.17756719  0.42894698  0.02535486    -0.22900
C4353       C  0.12184667  0.46527157  0.85140019    -0.05700
C4354       C  0.10344456  0.45968513  0.83162118     0.00200
C4355       C  0.11228905  0.45161150  0.80665305    -0.08300
C4356       C  0.13930736  0.44678157  0.80323046    -0.05700
C4357       C  0.15773360  0.45084522  0.82358114     0.00200
C4358       C  0.14895908  0.46167136  0.84775471    -0.08300
C4359       C  0.16759359  0.46940490  0.86982903     0.62100
H4360       H  0.11465030  0.47218180  0.87017933     0.12800
H4361       H  0.14616274  0.43955553  0.78445828     0.12800
C4362       C  0.09359841  0.44929418  0.78352544     0.62400
F4363       F  0.15448600  0.48111922  0.89057677    -0.22800
F4364       F  0.18583719  0.48730089  0.86057817    -0.20100
F4365       F  0.18033954  0.44745949  0.87949487    -0.19800
F4366       F  0.07941388  0.47232216  0.78091183    -0.19900
F4367       F  0.07648730  0.42860512  0.78740878    -0.20200
F4368       F  0.10691785  0.44502268  0.76019983    -0.22900
C4369       C  0.01553357  0.53986881  0.79094946    -0.05700
C4370       C  0.01419381  0.51237908  0.78967471     0.00200
C4371       C  0.01088719  0.50035289  0.76457882    -0.08300
C4372       C  0.01261131  0.51609569  0.74193573    -0.05700
C4373       C  0.01602802  0.54336830  0.74314644     0.00200
C4374       C  0.01569019  0.55573111  0.76822626    -0.08300
C4375       C  0.01566787  0.58536137  0.77144114     0.62100
H4376       H  0.01684298  0.54895091  0.81010177     0.12800
H4377       H  0.01159849  0.50698665  0.72277897     0.12800
C4378       C  0.00577129  0.47113136  0.76106650     0.62400
F4379       F  0.01412012  0.59278798  0.79754500    -0.22800
F4380       F  0.99407179  0.59591348  0.75867789    -0.20100
F4381       F  0.03852789  0.59585901  0.76118162    -0.19800
F4382       F  0.98356372  0.46395747  0.77505347    -0.19900
F4383       F  0.02721508  0.45678250  0.76961218    -0.20200
F4384       F  0.00136708  0.46454545  0.73505636    -0.22900
C4385       C  0.91111620  0.47491997  0.89576114    -0.05700
C4386       C  0.91324265  0.48454959  0.92163224     0.00200
C4387       C  0.93844275  0.49085010  0.93177186    -0.08300
C4388       C  0.96049026  0.48707125  0.91561365    -0.05700
C4389       C  0.95834969  0.47770033  0.88972785     0.00200
C4390       C  0.93325931  0.47151845  0.87948409    -0.08300
C4391       C  0.92968811  0.46251197  0.85130015     0.62100
H4392       H  0.89175576  0.47026261  0.88820490     0.12800
H4393       H  0.97989969  0.49145171  0.92322281     0.12800
C4394       C  0.94228626  0.50233191  0.95906774     0.62400
F4395       F  0.90337098  0.46054448  0.84451771    -0.22800
F4396       F  0.94107551  0.43812457  0.84794630    -0.20100
F4397       F  0.94137312  0.48029937  0.83440785    -0.19800
F4398       F  0.93521185  0.48405115  0.97784734    -0.19900
F4399       F  0.92707720  0.52466825  0.96189003    -0.20200
F4400       F  0.96821625  0.50929466  0.96368247    -0.22900
C4401       C  0.07047857  0.42525677  0.92953733    -0.05700
C4402       C  0.04558755  0.42416061  0.91761147     0.00200
C4403       C  0.02636682  0.40649442  0.92739077    -0.08300
C4404       C  0.03258858  0.39105558  0.94932410    -0.05700
C4405       C  0.05704282  0.39276125  0.96191018     0.00200
C4406       C  0.07665191  0.40968452  0.95163357    -0.08300
C4407       C  0.10343955  0.41213793  0.96454038     0.62100
H4408       H  0.08496455  0.43860775  0.92149547     0.12800
H4409       H  0.01788056  0.37808540  0.95760480     0.12800
C4410       C  0.99878785  0.40498051  0.91587012     0.62400
F4411       F  0.11935036  0.43005030  0.95167329    -0.22800
F4412       F  0.11604007  0.38810394  0.96424055    -0.20100
F4413       F  0.10047553  0.42040956  0.99019546    -0.19800
F4414       F  0.99976553  0.39508994  0.89063507    -0.19900
F4415       F  0.98764655  0.42969264  0.91547851    -0.20200
F4416       F  0.98245876  0.38884608  0.93046374    -0.22900
loop_ 
_geom_bond_atom_site_label_1 
_geom_bond_atom_site_label_2 
_geom_bond_distance 
_geom_bond_site_symmetry_2 
_ccdc_geom_bond_type 
O1            V9   1.917       .  S
O1           C11   1.271       .  A
O2            V9   1.918       .  S
O2           C12   1.269       .  A
O3            V9   1.874       .  S
O3           C13   1.258       .  A
O4            V9   1.879       .  S
O4           C14   1.260   1_455  A
O5           V10   1.913   1_655  S
O5           C14   1.268       .  A
O6           V10   1.912       .  S
O6           C13   1.268       .  A
O7           V10   1.884       .  S
O7           C12   1.258       .  A
O8           V10   1.886       .  S
O8           C11   1.258       .  A
V9           V10   2.084       .  T
C11        C4370   1.499       .  S
C12        C4402   1.479       .  S
C13        C4354   1.475       .  S
C14        C4389   1.482       .  S
O15          V23   1.913       .  S
O15          C25   1.268       .  A
O16          V23   1.914       .  S
O16          C26   1.268       .  A
O17          V23   1.881       .  S
O17          C27   1.260   1_554  A
O18          V23   1.878       .  S
O18          C28   1.259       .  A
O19          V24   1.907       .  S
O19          C28   1.267       .  A
O20          V24   1.917   1_556  S
O20          C27   1.268       .  A
O21          V24   1.883       .  S
O21          C26   1.261       .  A
O22          V24   1.891       .  S
O22          C25   1.263       .  A
V23          V24   2.083       .  T
C25        C4325   1.493       .  S
C26        C4341   1.490       .  S
C27        C4405   1.479       .  S
C28        C4306   1.481       .  S
O29          V37   1.910       .  S
O29          C39   1.267       .  A
O30          V37   1.907       .  S
O30          C40   1.267       .  A
O31          V37   1.877       .  S
O31          C41   1.260       .  A
O32          V37   1.876       .  S
O32          C42   1.257       .  A
O33          V38   1.911       .  S
O33          C42   1.268       .  A
O34          V38   1.919       .  S
O34          C41   1.269       .  A
O35          V38   1.887       .  S
O35          C40   1.261       .  A
O36          V38   1.896       .  S
O36          C39   1.263       .  A
V37          V38   2.085       .  T
C39        C4274   1.488       .  S
C40        C4386   1.485       .  S
C41        C4290   1.483       .  S
C42        C4261   1.470       .  S
O43          V51   1.904       .  S
O43          C53   1.268       .  A
O44          V51   1.903       .  S
O44          C54   1.265       .  A
O45          V51   1.879       .  S
O45          C55   1.260       .  A
O46          V51   1.883       .  S
O46          C56   1.259       .  A
O47          V52   1.911       .  S
O47          C56   1.267       .  A
O48          V52   1.909       .  S
O48          C55   1.267       .  A
O49          V52   1.890       .  S
O49          C54   1.262       .  A
O50          V52   1.894       .  S
O50          C53   1.261       .  A
V51          V52   2.085       .  T
C53        C4229   1.492       .  S
C54        C4242   1.473       .  S
C55        C4213   1.482       .  S
C56        C4338   1.467       .  S
O57          V65   1.912       .  S
O57          C67   1.270       .  A
O58          V65   1.907       .  S
O58          C68   1.269       .  A
O59          V65   1.882   1_455  S
O59          C69   1.259       .  A
O60          V65   1.884       .  S
O60          C70   1.258       .  A
O61          V66   1.905       .  S
O61          C70   1.267       .  A
O62          V66   1.908   1_455  S
O62          C69   1.266       .  A
O63          V66   1.894       .  S
O63          C68   1.261       .  A
O64          V66   1.900       .  S
O64          C67   1.263       .  A
V65          V66   2.083       .  T
C67        C4178   1.504       .  S
C68        C4197   1.487       .  S
C69        C4245   1.470       .  S
C70        C4162   1.474       .  S
O71          V79   1.919       .  S
O71          C81   1.271       .  A
O72          V79   1.920       .  S
O72          C82   1.270       .  A
O73          V79   1.881       .  S
O73          C83   1.259       .  A
O74          V79   1.887   1_554  S
O74          C84   1.259       .  A
O75          V80   1.914   1_554  S
O75          C84   1.270       .  A
O76          V80   1.912       .  S
O76          C83   1.268       .  A
O77          V80   1.881       .  S
O77          C82   1.257       .  A
O78          V80   1.885   1_554  S
O78          C81   1.258   1_554  A
V79          V80   2.084       .  T
C81        C4146   1.491   1_556  S
C82        C4293   1.479       .  S
C83        C4133   1.479       .  S
C84        C4194   1.490       .  S
O85          V93   1.913       .  S
O85          C95   1.270       .  A
O86          V93   1.912       .  S
O86          C96   1.268       .  A
O87          V93   1.879       .  S
O87          C97   1.259       .  A
O88          V93   1.875       .  S
O88          C98   1.257       .  A
O89          V94   1.910       .  S
O89          C98   1.267       .  A
O90          V94   1.912       .  S
O90          C97   1.267       .  A
O91          V94   1.895       .  S
O91          C96   1.261       .  A
O92          V94   1.892       .  S
O92          C95   1.260       .  A
V93          V94   2.086       .  T
C95        C4082   1.502       .  S
C96        C4114   1.482       .  S
C97        C4101   1.473       .  S
C98        C4066   1.465       .  S
O99         V107   1.909       .  S
O99         C109   1.269       .  A
O100        V107   1.903       .  S
O100        C110   1.265       .  A
O101        V107   1.881       .  S
O101        C111   1.261       .  A
O102        V107   1.886       .  S
O102        C112   1.260       .  A
O103        V108   1.909       .  S
O103        C112   1.266       .  A
O104        V108   1.904       .  S
O104        C111   1.265       .  A
O105        V108   1.894       .  S
O105        C110   1.263       .  A
O106        V108   1.892       .  S
O106        C109   1.261       .  A
V107        V108   2.083       .  T
C109       C4034   1.495       .  S
C110       C4098   1.493       .  S
C111       C4021   1.487       .  S
C112       C4050   1.473       .  S
O113        V121   1.907       .  S
O113        C123   1.268       .  A
O114        V121   1.903       .  S
O114        C124   1.265       .  A
O115        V121   1.883   1_455  S
O115        C125   1.259       .  A
O116        V121   1.883       .  S
O116        C126   1.258       .  A
O117        V122   1.905       .  S
O117        C126   1.266       .  A
O118        V122   1.909   1_455  S
O118        C125   1.266       .  A
O119        V122   1.894       .  S
O119        C124   1.264       .  A
O120        V122   1.904   1_455  S
O120        C123   1.264   1_455  A
V121        V122   2.086       .  T
C123       C4181   1.494   1_655  S
C124       C4053   1.495       .  S
C125       C4002   1.469       .  S
C126       C3986   1.462       .  S
O127        V135   1.917       .  S
O127        C137   1.269       .  A
O128        V135   1.917       .  S
O128        C138   1.269       .  A
O129        V135   1.877       .  S
O129        C139   1.256       .  A
O130        V135   1.879       .  S
O130        C140   1.257       .  A
O131        V136   1.904       .  S
O131        C140   1.267       .  A
O132        V136   1.900       .  S
O132        C139   1.268       .  A
O133        V136   1.879       .  S
O133        C138   1.259       .  A
O134        V136   1.880       .  S
O134        C137   1.261       .  A
V135        V136   2.083       .  T
C137       C3954   1.499       .  S
C138       C4005   1.485       .  S
C139       C3938   1.471       .  S
C140       C3970   1.477       .  S
O141        V149   1.906       .  S
O141        C151   1.269       .  A
O142        V149   1.905       .  S
O142        C152   1.266       .  A
O143        V149   1.881       .  S
O143        C153   1.259       .  A
O144        V149   1.885       .  S
O144        C154   1.261   1_455  A
O145        V150   1.913   1_655  S
O145        C154   1.267       .  A
O146        V150   1.909       .  S
O146        C153   1.266       .  A
O147        V150   1.891       .  S
O147        C152   1.264       .  A
O148        V150   1.899       .  S
O148        C151   1.262       .  A
V149        V150   2.083       .  T
C151       C4373   1.498       .  S
C152       C3922   1.495       .  S
C153       C3906   1.472       .  S
C154       C4117   1.480       .  S
O155        V163   1.907       .  S
O155        C165   1.267       .  A
O156        V163   1.900       .  S
O156        C166   1.268       .  A
O157        V163   1.880       .  S
O157        C167   1.258       .  A
O158        V163   1.881       .  S
O158        C168   1.257       .  A
O159        V164   1.911       .  S
O159        C168   1.268       .  A
O160        V164   1.913       .  S
O160        C167   1.267       .  A
O161        V164   1.885       .  S
O161        C166   1.258       .  A
O162        V164   1.892       .  S
O162        C165   1.263       .  A
V163        V164   2.085       .  T
C165       C3893   1.496       .  S
C166       C3973   1.478       .  S
C167       C3925   1.469       .  S
C168       C3874   1.470       .  S
O169        V177   1.909       .  S
O169        C179   1.266       .  A
O170        V177   1.907       .  S
O170        C180   1.266       .  A
O171        V177   1.882       .  S
O171        C181   1.260       .  A
O172        V177   1.879       .  S
O172        C182   1.260       .  A
O173        V178   1.900       .  S
O173        C182   1.264       .  A
O174        V178   1.906       .  S
O174        C181   1.265       .  A
O175        V178   1.894       .  S
O175        C180   1.264       .  A
O176        V178   1.898       .  S
O176        C179   1.265       .  A
V177        V178   2.084       .  T
C179       C3826   1.493       .  S
C180       C3858   1.492       .  S
C181       C3842   1.468       .  S
C182       C3813   1.480       .  S
O183        V191   1.901       .  S
O183        C193   1.265       .  A
O184        V191   1.899       .  S
O184        C194   1.264       .  A
O185        V191   1.885       .  S
O185        C195   1.259       .  A
O186        V191   1.883       .  S
O186        C196   1.261       .  A
O187        V192   1.910       .  S
O187        C196   1.266       .  A
O188        V192   1.904       .  S
O188        C195   1.267       .  A
O189        V192   1.891       .  S
O189        C194   1.263       .  A
O190        V192   1.896       .  S
O190        C193   1.262       .  A
V191        V192   2.084       .  T
C193       C4226   1.480       .  S
C194       C3845   1.492       .  S
C195       C3778   1.479       .  S
C196       C3797   1.477       .  S
O197        V205   1.911       .  S
O197        C207   1.269       .  A
O198        V205   1.911       .  S
O198        C208   1.268       .  A
O199        V205   1.880   1_554  S
O199        C209   1.257       .  A
O200        V205   1.877       .  S
O200        C210   1.259       .  A
O201        V206   1.914       .  S
O201        C210   1.269       .  A
O202        V206   1.915   1_554  S
O202        C209   1.270       .  A
O203        V206   1.887       .  S
O203        C208   1.258       .  A
O204        V206   1.891   1_554  S
O204        C207   1.260   1_554  A
V205        V206   2.084       .  T
C207       C3746   1.485   1_556  S
C208       C3794   1.475       .  S
C209       C3765   1.489       .  S
C210       C3730   1.487       .  S
O211        V219   1.915       .  S
O211        C221   1.269       .  A
O212        V219   1.912       .  S
O212        C222   1.270       .  A
O213        V219   1.880       .  S
O213        C223   1.256       .  A
O214        V219   1.881       .  S
O214        C224   1.259       .  A
O215        V220   1.921       .  S
O215        C224   1.270       .  A
O216        V220   1.914       .  S
O216        C223   1.270       .  A
O217        V220   1.883       .  S
O217        C222   1.258       .  A
O218        V220   1.892       .  S
O218        C221   1.262       .  A
V219        V220   2.084       .  T
C221       C3698   1.487       .  S
C222       C3762   1.483       .  S
C223       C3682   1.476       .  S
C224       C3714   1.482       .  S
O225        V233   1.908       .  S
O225        C235   1.266       .  A
O226        V233   1.904       .  S
O226        C236   1.269       .  A
O227        V233   1.877       .  S
O227        C237   1.256       .  A
O228        V233   1.884   1_556  S
O228        C238   1.259       .  A
O229        V234   1.914   1_556  S
O229        C238   1.268       .  A
O230        V234   1.909       .  S
O230        C237   1.268       .  A
O231        V234   1.890       .  S
O231        C236   1.259       .  A
O232        V234   1.894       .  S
O232        C235   1.265       .  A
V233        V234   2.084       .  T
C235       C3650   1.498       .  S
C236       C3666   1.481       .  S
C237       C3634   1.475       .  S
C238       C3861   1.472       .  S
O239        V247   1.918       .  S
O239        C249   1.269       .  A
O240        V247   1.918       .  S
O240        C250   1.270       .  A
O241        V247   1.874       .  S
O241        C251   1.255       .  A
O242        V247   1.870       .  S
O242        C252   1.256       .  A
O243        V248   1.917       .  S
O243        C252   1.269       .  A
O244        V248   1.921       .  S
O244        C251   1.271       .  A
O245        V248   1.885       .  S
O245        C250   1.258       .  A
O246        V248   1.890       .  S
O246        C249   1.263       .  A
V247        V248   2.082       .  T
C249       C4277   1.503       .  S
C250       C3717   1.484       .  S
C251       C3669   1.488       .  S
C252       C3618   1.471       .  S
O253        V261   1.917       .  S
O253        C263   1.270       .  A
O254        V261   1.913       .  S
O254        C264   1.271       .  A
O255        V261   1.888       .  S
O255        C265   1.261       .  A
O256        V261   1.882       .  S
O256        C266   1.257       .  A
O257        V262   1.914       .  S
O257        C266   1.268       .  A
O258        V262   1.918       .  S
O258        C265   1.268       .  A
O259        V262   1.887       .  S
O259        C264   1.258       .  A
O260        V262   1.895       .  S
O260        C263   1.262       .  A
V261        V262   2.082       .  T
C263       C3570   1.501       .  S
C264       C3602   1.498       .  S
C265       C3586   1.483       .  S
C266       C3554   1.474       .  S
O267        V275   1.916       .  S
O267        C277   1.269       .  A
O268        V275   1.916       .  S
O268        C278   1.269       .  A
O269        V275   1.874       .  S
O269        C279   1.259       .  A
O270        V275   1.880       .  S
O270        C280   1.259       .  A
O271        V276   1.916       .  S
O271        C280   1.268       .  A
O272        V276   1.913       .  S
O272        C279   1.268       .  A
O273        V276   1.890       .  S
O273        C278   1.260       .  A
O274        V276   1.891       .  S
O274        C277   1.263       .  A
V275        V276   2.083       .  T
C277       C3701   1.501       .  S
C278       C3589   1.487       .  S
C279       C3522   1.490       .  S
C280       C3538   1.479       .  S
O281        V289   1.903       .  S
O281        C291   1.267       .  A
O282        V289   1.901       .  S
O282        C292   1.264       .  A
O283        V289   1.891       .  S
O283        C293   1.263       .  A
O284        V289   1.888       .  S
O284        C294   1.262       .  A
O285        V290   1.898       .  S
O285        C294   1.264       .  A
O286        V290   1.908       .  S
O286        C293   1.265       .  A
O287        V290   1.898       .  S
O287        C292   1.265       .  A
O288        V290   1.901       .  S
O288        C291   1.263       .  A
V289        V290   2.083       .  T
C291       C4085   1.488       .  S
C292       C3541   1.493       .  S
C293       C3506   1.484       .  S
C294       C3493   1.486       .  S
O295        V303   1.900       .  S
O295        C305   1.266       .  A
O296        V303   1.898       .  S
O296        C306   1.263       .  A
O297        V303   1.882       .  S
O297        C307   1.262       .  A
O298        V303   1.889       .  S
O298        C308   1.262       .  A
O299        V304   1.916       .  S
O299        C308   1.268       .  A
O300        V304   1.906       .  S
O300        C307   1.265       .  A
O301        V304   1.901       .  S
O301        C306   1.265       .  A
O302        V304   1.914       .  S
O302        C305   1.266       .  A
V303        V304   2.083       .  T
C305       C3458   1.496       .  S
C306       C3509   1.489       .  S
C307       C3442   1.488       .  S
C308       C3474   1.482       .  S
O309        V317   1.914       .  S
O309        C319   1.268       .  A
O310        V317   1.913       .  S
O310        C320   1.270       .  A
O311        V317   1.874       .  S
O311        C321   1.255       .  A
O312        V317   1.867       .  S
O312        C322   1.256       .  A
O313        V318   1.918       .  S
O313        C322   1.269       .  A
O314        V318   1.921       .  S
O314        C321   1.271       .  A
O315        V318   1.889       .  S
O315        C320   1.259       .  A
O316        V318   1.892       .  S
O316        C319   1.263       .  A
V317        V318   2.084       .  T
C319       C3829   1.504       .  S
C320       C3477   1.483       .  S
C321       C3426   1.480       .  S
C322       C3410   1.468       .  S
O323        V331   1.908       .  S
O323        C333   1.267       .  A
O324        V331   1.907       .  S
O324        C334   1.269       .  A
O325        V331   1.871       .  S
O325        C335   1.257       .  A
O326        V331   1.880       .  S
O326        C336   1.257       .  A
O327        V332   1.921       .  S
O327        C336   1.270       .  A
O328        V332   1.912       .  S
O328        C335   1.268       .  A
O329        V332   1.884       .  S
O329        C334   1.258       .  A
O330        V332   1.890       .  S
O330        C333   1.262       .  A
V331        V332   2.085       .  T
C333       C3957   1.491       .  S
C334       C3429   1.486       .  S
C335       C3394   1.474       .  S
C336       C3605   1.476       .  S
O337        V345   1.908       .  S
O337        C347   1.269       .  A
O338        V345   1.906       .  S
O338        C348   1.266       .  A
O339        V345   1.877       .  S
O339        C349   1.260       .  A
O340        V345   1.880       .  S
O340        C350   1.259       .  A
O341        V346   1.908       .  S
O341        C350   1.267       .  A
O342        V346   1.911       .  S
O342        C349   1.266       .  A
O343        V346   1.897       .  S
O343        C348   1.265       .  A
O344        V346   1.903       .  S
O344        C347   1.263       .  A
V345        V346   2.082       .  T
C347       C3573   1.506       .  S
C348       C3378   1.499       .  S
C349       C3362   1.478       .  S
C350       C3346   1.472       .  S
O351        V359   1.909   1_545  S
O351        C361   1.269   1_545  A
O352        V359   1.907       .  S
O352        C362   1.266       .  A
O353        V359   1.879       .  S
O353        C363   1.259       .  A
O354        V359   1.885       .  S
O354        C364   1.262       .  A
O355        V360   1.918       .  S
O355        C364   1.269       .  A
O356        V360   1.916       .  S
O356        C363   1.268       .  A
O357        V360   1.886       .  S
O357        C362   1.259       .  A
O358        V360   1.890       .  S
O358        C361   1.260       .  A
V359        V360   2.084       .  T
C361       C3314   1.499   1_565  S
C362       C3365   1.468       .  S
C363       C3298   1.480       .  S
C364       C3330   1.493       .  S
O365        V373   1.928       .  S
O365        C375   1.273       .  A
O366        V373   1.922       .  S
O366        C376   1.270       .  A
O367        V373   1.883       .  S
O367        C377   1.260       .  A
O368        V373   1.887       .  S
O368        C378   1.261       .  A
O369        V374   1.910       .  S
O369        C378   1.267       .  A
O370        V374   1.907       .  S
O370        C377   1.266       .  A
O371        V374   1.891       .  S
O371        C376   1.261       .  A
O372        V374   1.889       .  S
O372        C375   1.259       .  A
V373        V374   2.084       .  T
C375       C3461   1.507       .  S
C376       C3285   1.485       .  S
C377       C3250   1.477       .  S
C378       C3269   1.478       .  S
O379        V387   1.908       .  S
O379        C389   1.270   1_565  A
O380        V387   1.908       .  S
O380        C390   1.267       .  A
O381        V387   1.884   1_545  S
O381        C391   1.260       .  A
O382        V387   1.880       .  S
O382        C392   1.259       .  A
O383        V388   1.918   1_565  S
O383        C392   1.269       .  A
O384        V388   1.921       .  S
O384        C391   1.270       .  A
O385        V388   1.894   1_565  S
O385        C390   1.262       .  A
O386        V388   1.900       .  S
O386        C389   1.262       .  A
V387        V388   2.083   1_565  T
C389       C3237   1.503       .  S
C390       C3333   1.489       .  S
C391       C3282   1.483       .  S
C392       C3218   1.480       .  S
O393        V401   1.904       .  S
O393        C403   1.266       .  A
O394        V401   1.902       .  S
O394        C404   1.264       .  A
O395        V401   1.888       .  S
O395        C405   1.263       .  A
O396        V401   1.884       .  S
O396        C406   1.259       .  A
O397        V402   1.906       .  S
O397        C406   1.266       .  A
O398        V402   1.917       .  S
O398        C405   1.268       .  A
O399        V402   1.893       .  S
O399        C404   1.264       .  A
O400        V402   1.905       .  S
O400        C403   1.265       .  A
V401        V402   2.084       .  T
C403       C3186   1.490       .  S
C404       C3266   1.493       .  S
C405       C3202   1.492       .  S
C406       C3170   1.469       .  S
O407        V415   1.919       .  S
O407        C417   1.270       .  A
O408        V415   1.919       .  S
O408        C418   1.269       .  A
O409        V415   1.885       .  S
O409        C419   1.261       .  A
O410        V415   1.894       .  S
O410        C420   1.262       .  A
O411        V416   1.910       .  S
O411        C420   1.267       .  A
O412        V416   1.904       .  S
O412        C419   1.266       .  A
O413        V416   1.894       .  S
O413        C418   1.261       .  A
O414        V416   1.894       .  S
O414        C417   1.263       .  A
V415        V416   2.083       .  T
C417       C3154   1.506       .  S
C418       C3205   1.488       .  S
C419       C3141   1.484       .  S
C420       C3381   1.483   1_545  S
O421        V429   1.905       .  S
O421        C431   1.265       .  A
O422        V429   1.901       .  S
O422        C432   1.265       .  A
O423        V429   1.886       .  S
O423        C433   1.259       .  A
O424        V429   1.887       .  S
O424        C434   1.260   1_554  A
O425        V430   1.909       .  S
O425        C434   1.266   1_554  A
O426        V430   1.908       .  S
O426        C433   1.267       .  A
O427        V430   1.890       .  S
O427        C432   1.262       .  A
O428        V430   1.896       .  S
O428        C431   1.265       .  A
V429        V430   2.084       .  T
C431       C3653   1.499       .  S
C432       C3122   1.486       .  S
C433       C3090   1.474       .  S
C434       C3106   1.471       .  S
O435        V443   1.906       .  S
O435        C445   1.269       .  A
O436        V443   1.910       .  S
O436        C446   1.268       .  A
O437        V443   1.880       .  S
O437        C447   1.260       .  A
O438        V443   1.878       .  S
O438        C448   1.257       .  A
O439        V444   1.904       .  S
O439        C448   1.265       .  A
O440        V444   1.907       .  S
O440        C447   1.266       .  A
O441        V444   1.891       .  S
O441        C446   1.261       .  A
O442        V444   1.894       .  S
O442        C445   1.261       .  A
V443        V444   2.086       .  T
C445       C3058   1.499       .  S
C446       C3074   1.482       .  S
C447       C3125   1.475   1_545  S
C448       C3045   1.456       .  S
O449        V457   1.922   1_545  S
O449        C459   1.269       .  A
O450        V457   1.918       .  S
O450        C460   1.269       .  A
O451        V457   1.883   1_545  S
O451        C461   1.261   1_545  A
O452        V457   1.885       .  S
O452        C462   1.258       .  A
O453        V458   1.904       .  S
O453        C462   1.268       .  A
O454        V458   1.907       .  S
O454        C461   1.266       .  A
O455        V458   1.884       .  S
O455        C460   1.260       .  A
O456        V458   1.888       .  S
O456        C459   1.263   1_565  A
V457        V458   2.083       .  T
C459       C3189   1.504       .  S
C460       C3109   1.490       .  S
C461       C3026   1.482       .  S
C462       C3010   1.476       .  S
O463        V471   1.906       .  S
O463        C473   1.268       .  A
O464        V471   1.908       .  S
O464        C474   1.267       .  A
O465        V471   1.869       .  S
O465        C475   1.254       .  A
O466        V471   1.879       .  S
O466        C476   1.259       .  A
O467        V472   1.914       .  S
O467        C476   1.268       .  A
O468        V472   1.906       .  S
O468        C475   1.268       .  A
O469        V472   1.884       .  S
O469        C474   1.261       .  A
O470        V472   1.893       .  S
O470        C473   1.261       .  A
V471        V472   2.086       .  T
C473       C3317   1.488       .  S
C474       C2994   1.480       .  S
C475       C2981   1.467       .  S
C476       C3077   1.471       .  S
O477        V485   1.911       .  S
O477        C487   1.267   1_556  A
O478        V485   1.910       .  S
O478        C488   1.267       .  A
O479        V485   1.881   1_554  S
O479        C489   1.259       .  A
O480        V485   1.880       .  S
O480        C490   1.256       .  A
O481        V486   1.900       .  S
O481        C490   1.269       .  A
O482        V486   1.906   1_554  S
O482        C489   1.265       .  A
O483        V486   1.887       .  S
O483        C488   1.260       .  A
O484        V486   1.895   1_554  S
O484        C487   1.261       .  A
V485        V486   2.087       .  T
C487       C3749   1.477       .  S
C488       C2962   1.474       .  S
C489       C2997   1.464       .  S
C490       C2946   1.487       .  S
O491        V499   1.900   1_544  S
O491        C501   1.265   1_554  A
O492        V499   1.901       .  S
O492        C502   1.265       .  A
O493        V499   1.884       .  S
O493        C503   1.260       .  A
O494        V499   1.888   1_545  S
O494        C504   1.260       .  A
O495        V500   1.907       .  S
O495        C504   1.267       .  A
O496        V500   1.905   1_565  S
O496        C503   1.265       .  A
O497        V500   1.892       .  S
O497        C502   1.263   1_545  A
O498        V500   1.897       .  S
O498        C501   1.264       .  A
V499        V500   2.084   1_565  T
C501       C2930   1.491   1_556  S
C502       C3029   1.482       .  S
C503       C2917   1.469       .  S
C504       C2965   1.476       .  S
O505        V513   1.908       .  S
O505        C515   1.266       .  A
O506        V513   1.904       .  S
O506        C516   1.268       .  A
O507        V513   1.889       .  S
O507        C517   1.262   1_554  A
O508        V513   1.888       .  S
O508        C518   1.259       .  A
O509        V514   1.904       .  S
O509        C518   1.268       .  A
O510        V514   1.915   1_556  S
O510        C517   1.268       .  A
O511        V514   1.889       .  S
O511        C516   1.259       .  A
O512        V514   1.897       .  S
O512        C515   1.265       .  A
V513        V514   2.082       .  T
C515       C4322   1.502   1_655  S
C516       C2898   1.478       .  S
C517       C2885   1.488       .  S
C518       C2866   1.482       .  S
O519        V527   1.916       .  S
O519        C529   1.268   1_565  A
O520        V527   1.913       .  S
O520        C530   1.269       .  A
O521        V527   1.867       .  S
O521        C531   1.256       .  A
O522        V527   1.876   1_545  S
O522        C532   1.256       .  A
O523        V528   1.918       .  S
O523        C532   1.270       .  A
O524        V528   1.917   1_565  S
O524        C531   1.269       .  A
O525        V528   1.877   1_565  S
O525        C530   1.256       .  A
O526        V528   1.881       .  S
O526        C529   1.261       .  A
V527        V528   2.084   1_565  T
C529       C2933   1.496       .  S
C530       C2853   1.471       .  S
C531       C2834   1.470       .  S
C532       C2901   1.485       .  S
O533        V541   1.907       .  S
O533        C543   1.268       .  A
O534        V541   1.902       .  S
O534        C544   1.269       .  A
O535        V541   1.884       .  S
O535        C545   1.261   1_455  A
O536        V541   1.882       .  S
O536        C546   1.259       .  A
O537        V542   1.904       .  S
O537        C546   1.265       .  A
O538        V542   1.908   1_655  S
O538        C545   1.265       .  A
O539        V542   1.895       .  S
O539        C544   1.261       .  A
O540        V542   1.899       .  S
O540        C543   1.263       .  A
V541        V542   2.083       .  T
C543       C2802   1.495   1_565  S
C544       C2821   1.495       .  S
C545       C2850   1.473       .  S
C546       C2789   1.462       .  S
O547        V555   1.907       .  S
O547        C557   1.270   1_556  A
O548        V555   1.911       .  S
O548        C558   1.268       .  A
O549        V555   1.878       .  S
O549        C559   1.256       .  A
O550        V555   1.882   1_554  S
O550        C560   1.258       .  A
O551        V556   1.917   1_554  S
O551        C560   1.268       .  A
O552        V556   1.908       .  S
O552        C559   1.268       .  A
O553        V556   1.890       .  S
O553        C558   1.262       .  A
O554        V556   1.895   1_554  S
O554        C557   1.260       .  A
V555        V556   2.084       .  T
C557       C4149   1.501       .  S
C558       C2773   1.490       .  S
C559       C2757   1.462       .  S
C560       C2818   1.472       .  S
O561        V569   1.910       .  S
O561        C571   1.269       .  A
O562        V569   1.909       .  S
O562        C572   1.267       .  A
O563        V569   1.889       .  S
O563        C573   1.260   1_545  A
O564        V569   1.882       .  S
O564        C574   1.261       .  A
O565        V570   1.908       .  S
O565        C574   1.267       .  A
O566        V570   1.910   1_565  S
O566        C573   1.266       .  A
O567        V570   1.887       .  S
O567        C572   1.260       .  A
O568        V570   1.892       .  S
O568        C571   1.260       .  A
V569        V570   2.086       .  T
C571       C3061   1.493       .  S
C572       C2738   1.470       .  S
C573       C2770   1.471       .  S
C574       C2722   1.488       .  S
O575        V583   1.912       .  S
O575        C585   1.270       .  A
O576        V583   1.914       .  S
O576        C586   1.268       .  A
O577        V583   1.876       .  S
O577        C587   1.257       .  A
O578        V583   1.879   1_455  S
O578        C588   1.258       .  A
O579        V584   1.914   1_455  S
O579        C588   1.269       .  A
O580        V584   1.911       .  S
O580        C587   1.268       .  A
O581        V584   1.894       .  S
O581        C586   1.261       .  A
O582        V584   1.894   1_455  S
O582        C585   1.260   1_455  A
V583        V584   2.085       .  T
C585       C2709   1.500       .  S
C586       C2882   1.479       .  S
C587       C2690   1.468       .  S
C588       C2741   1.476       .  S
O589        V597   1.908       .  S
O589        C599   1.269       .  A
O590        V597   1.906       .  S
O590        C600   1.266       .  A
O591        V597   1.884       .  S
O591        C601   1.260   1_455  A
O592        V597   1.879       .  S
O592        C602   1.260       .  A
O593        V598   1.911       .  S
O593        C602   1.267       .  A
O594        V598   1.912   1_655  S
O594        C601   1.267       .  A
O595        V598   1.895       .  S
O595        C600   1.263       .  A
O596        V598   1.898       .  S
O596        C599   1.262       .  A
V597        V598   2.084       .  T
C599       C2805   1.502       .  S
C600       C2677   1.483       .  S
C601       C2658   1.475       .  S
C602       C2645   1.483       .  S
O603        V611   1.913       .  S
O603        C613   1.267       .  A
O604        V611   1.908       .  S
O604        C614   1.267       .  A
O605        V611   1.881       .  S
O605        C615   1.261       .  A
O606        V611   1.887       .  S
O606        C616   1.260   1_545  A
O607        V612   1.914       .  S
O607        C616   1.268   1_545  A
O608        V612   1.905       .  S
O608        C615   1.266       .  A
O609        V612   1.893       .  S
O609        C614   1.263       .  A
O610        V612   1.901       .  S
O610        C613   1.264       .  A
V611        V612   2.083       .  T
C613       C3157   1.491       .  S
C614       C2661   1.499       .  S
C615       C2610   1.487       .  S
C616       C2626   1.477       .  S
O617        V625   1.912       .  S
O617        C627   1.267       .  A
O618        V625   1.911       .  S
O618        C628   1.269       .  A
O619        V625   1.879       .  S
O619        C629   1.260       .  A
O620        V625   1.879       .  S
O620        C630   1.259       .  A
O621        V626   1.905       .  S
O621        C630   1.266       .  A
O622        V626   1.906       .  S
O622        C629   1.265       .  A
O623        V626   1.889       .  S
O623        C628   1.259       .  A
O624        V626   1.890       .  S
O624        C627   1.263       .  A
V625        V626   2.084       .  T
C627       C3890   1.499       .  S
C628       C2629   1.480       .  S
C629       C2594   1.475       .  S
C630       C2578   1.480       .  S
O631        V639   1.905       .  S
O631        C641   1.269       .  A
O632        V639   1.904       .  S
O632        C642   1.267       .  A
O633        V639   1.886       .  S
O633        C643   1.260       .  A
O634        V639   1.888       .  S
O634        C644   1.260       .  A
O635        V640   1.910       .  S
O635        C644   1.267       .  A
O636        V640   1.906       .  S
O636        C643   1.266       .  A
O637        V640   1.893       .  S
O637        C642   1.261       .  A
O638        V640   1.900       .  S
O638        C641   1.262       .  A
V639        V640   2.083       .  T
C641       C4037   1.500       .  S
C642       C2562   1.480       .  S
C643       C2546   1.477       .  S
C644       C2674   1.475       .  S
O645        V653   1.922       .  S
O645        C655   1.271   1_565  A
O646        V653   1.921       .  S
O646        C656   1.270       .  A
O647        V653   1.884   1_545  S
O647        C657   1.258       .  A
O648        V653   1.883       .  S
O648        C658   1.260       .  A
O649        V654   1.909   1_565  S
O649        C658   1.268       .  A
O650        V654   1.912       .  S
O650        C657   1.269       .  A
O651        V654   1.881   1_565  S
O651        C656   1.259       .  A
O652        V654   1.884       .  S
O652        C655   1.258       .  A
V653        V654   2.081   1_565  T
C655       C3234   1.494       .  S
C656       C2530   1.489       .  S
C657       C2565   1.490       .  S
C658       C2514   1.488       .  S
O659        V667   1.908   1_545  S
O659        C669   1.267   1_545  A
O660        V667   1.902       .  S
O660        C670   1.265       .  A
O661        V667   1.880       .  S
O661        C671   1.257       .  A
O662        V667   1.883   1_455  S
O662        C672   1.259       .  A
O663        V668   1.911   1_455  S
O663        C672   1.267       .  A
O664        V668   1.907       .  S
O664        C671   1.268       .  A
O665        V668   1.885       .  S
O665        C670   1.261       .  A
O666        V668   1.897       .  S
O666        C669   1.262       .  A
V667        V668   2.086       .  T
C669       C2706   1.487   1_565  S
C670       C2597   1.482       .  S
C671       C2498   1.476       .  S
C672       C2533   1.471       .  S
O673        V681   1.903       .  S
O673        C683   1.268       .  A
O674        V681   1.900       .  S
O674        C684   1.264       .  A
O675        V681   1.878       .  S
O675        C685   1.260       .  A
O676        V681   1.878       .  S
O676        C686   1.260       .  A
O677        V682   1.900       .  S
O677        C686   1.264       .  A
O678        V682   1.908       .  S
O678        C685   1.265       .  A
O679        V682   1.899       .  S
O679        C684   1.265       .  A
O680        V682   1.905       .  S
O680        C683   1.264       .  A
V681        V682   2.082       .  T
C683       C2450   1.501       .  S
C684       C2482   1.494       .  S
C685       C2466   1.476       .  S
C686       C3810   1.486       .  S
O687        V695   1.906       .  S
O687        C697   1.269       .  A
O688        V695   1.902       .  S
O688        C698   1.265       .  A
O689        V695   1.890       .  S
O689        C699   1.260       .  A
O690        V695   1.895       .  S
O690        C700   1.263       .  A
O691        V696   1.913       .  S
O691        C700   1.267       .  A
O692        V696   1.906       .  S
O692        C699   1.266       .  A
O693        V696   1.885       .  S
O693        C698   1.261       .  A
O694        V696   1.896       .  S
O694        C697   1.261       .  A
V695        V696   2.084       .  T
C697       C2418   1.500       .  S
C698       C2469   1.479       .  S
C699       C4130   1.470       .  S
C700       C2437   1.489       .  S
O701        V709   1.910       .  S
O701        C711   1.267       .  A
O702        V709   1.908       .  S
O702        C712   1.267       .  A
O703        V709   1.878       .  S
O703        C713   1.259       .  A
O704        V709   1.875       .  S
O704        C714   1.259       .  A
O705        V710   1.915       .  S
O705        C714   1.269       .  A
O706        V710   1.919       .  S
O706        C713   1.269       .  A
O707        V710   1.884       .  S
O707        C712   1.260       .  A
O708        V710   1.889       .  S
O708        C711   1.262       .  A
V709        V710   2.084       .  T
C711       C2370   1.489       .  S
C712       C2402   1.481       .  S
C713       C2389   1.483       .  S
C714       C3349   1.488       .  S
O715        V723   1.901       .  S
O715        C725   1.267       .  A
O716        V723   1.899       .  S
O716        C726   1.264       .  A
O717        V723   1.895       .  S
O717        C727   1.264       .  A
O718        V723   1.895       .  S
O718        C728   1.262       .  A
O719        V724   1.902       .  S
O719        C728   1.263       .  A
O720        V724   1.897       .  S
O720        C727   1.263       .  A
O721        V724   1.902       .  S
O721        C726   1.265       .  A
O722        V724   1.901       .  S
O722        C725   1.263       .  A
V723        V724   2.083       .  T
C725       C2354   1.499       .  S
C726       C2386   1.490       .  S
C727       C2914   1.487       .  S
C728       C2485   1.468       .  S
O729        V737   1.916       .  S
O729        C739   1.268       .  A
O730        V737   1.917       .  S
O730        C740   1.269       .  A
O731        V737   1.879       .  S
O731        C741   1.260       .  A
O732        V737   1.875       .  S
O732        C742   1.258       .  A
O733        V738   1.909       .  S
O733        C742   1.267       .  A
O734        V738   1.911       .  S
O734        C741   1.267       .  A
O735        V738   1.892       .  S
O735        C740   1.260       .  A
O736        V738   1.893       .  S
O736        C739   1.264       .  A
V737        V738   2.084       .  T
C739       C2322   1.503       .  S
C740       C2434   1.483       .  S
C741       C2338   1.482       .  S
C742       C4069   1.479       .  S
O743        V751   1.901       .  S
O743        C753   1.268       .  A
O744        V751   1.899       .  S
O744        C754   1.264       .  A
O745        V751   1.881       .  S
O745        C755   1.257       .  A
O746        V751   1.880       .  S
O746        C756   1.258       .  A
O747        V752   1.907       .  S
O747        C756   1.266       .  A
O748        V752   1.905       .  S
O748        C755   1.266       .  A
O749        V752   1.897       .  S
O749        C754   1.264       .  A
O750        V752   1.902       .  S
O750        C753   1.263       .  A
V751        V752   2.085       .  T
C753       C2306   1.494   1_565  S
C754       C2341   1.486       .  S
C755       C2501   1.463       .  S
C756       C2405   1.464       .  S
O757        V765   1.907       .  S
O757        C767   1.270       .  A
O758        V765   1.909       .  S
O758        C768   1.267       .  A
O759        V765   1.881       .  S
O759        C769   1.260       .  A
O760        V765   1.877       .  S
O760        C770   1.258       .  A
O761        V766   1.916       .  S
O761        C770   1.269       .  A
O762        V766   1.918       .  S
O762        C769   1.269       .  A
O763        V766   1.883       .  S
O763        C768   1.258       .  A
O764        V766   1.887       .  S
O764        C767   1.258       .  A
V765        V766   2.085       .  T
C767       C2261   1.492       .  S
C768       C2290   1.470       .  S
C769       C2277   1.490       .  S
C770       C2517   1.474       .  S
O771        V779   1.908       .  S
O771        C781   1.267       .  A
O772        V779   1.908       .  S
O772        C782   1.266       .  A
O773        V779   1.882       .  S
O773        C783   1.261       .  A
O774        V779   1.882       .  S
O774        C784   1.259       .  A
O775        V780   1.908       .  S
O775        C784   1.266       .  A
O776        V780   1.903       .  S
O776        C783   1.265       .  A
O777        V780   1.893       .  S
O777        C782   1.263       .  A
O778        V780   1.901       .  S
O778        C781   1.263       .  A
V779        V780   2.085       .  T
C781       C2226   1.488       .  S
C782       C2274   1.486       .  S
C783       C3909   1.486       .  S
C784       C2242   1.468       .  S
O785        V793   1.912       .  S
O785        C795   1.269       .  A
O786        V793   1.909       .  S
O786        C796   1.267       .  A
O787        V793   1.887       .  S
O787        C797   1.259       .  A
O788        V793   1.886       .  S
O788        C798   1.260       .  A
O789        V794   1.908       .  S
O789        C798   1.266       .  A
O790        V794   1.908       .  S
O790        C797   1.266       .  A
O791        V794   1.884       .  S
O791        C796   1.261       .  A
O792        V794   1.890       .  S
O792        C795   1.260       .  A
V793        V794   2.085       .  T
C795       C2181   1.487       .  S
C796       C2210   1.492       .  S
C797       C3781   1.470       .  S
C798       C2194   1.476       .  S
O799        V807   1.911       .  S
O799        C809   1.268       .  A
O800        V807   1.910       .  S
O800        C810   1.268       .  A
O801        V807   1.878       .  S
O801        C811   1.259       .  A
O802        V807   1.876       .  S
O802        C812   1.255       .  A
O803        V808   1.911       .  S
O803        C812   1.270       .  A
O804        V808   1.915       .  S
O804        C811   1.268       .  A
O805        V808   1.884       .  S
O805        C810   1.260       .  A
O806        V808   1.887       .  S
O806        C809   1.262       .  A
V807        V808   2.084       .  T
C809       C2373   1.498       .  S
C810       C2245   1.482       .  S
C811       C2213   1.477       .  S
C812       C3557   1.480       .  S
O813        V821   1.914       .  S
O813        C823   1.269       .  A
O814        V821   1.912       .  S
O814        C824   1.268       .  A
O815        V821   1.882       .  S
O815        C825   1.258       .  A
O816        V821   1.881       .  S
O816        C826   1.260       .  A
O817        V822   1.910       .  S
O817        C826   1.267       .  A
O818        V822   1.910       .  S
O818        C825   1.267       .  A
O819        V822   1.886       .  S
O819        C824   1.261       .  A
O820        V822   1.891       .  S
O820        C823   1.260       .  A
V821        V822   2.085       .  T
C823       C2421   1.491       .  S
C824       C2165   1.490       .  S
C825       C2754   1.466       .  S
C826       C2293   1.479       .  S
O827        V835   1.908       .  S
O827        C837   1.269       .  A
O828        V835   1.906       .  S
O828        C838   1.267       .  A
O829        V835   1.883       .  S
O829        C839   1.261       .  A
O830        V835   1.880       .  S
O830        C840   1.258       .  A
O831        V836   1.912       .  S
O831        C840   1.267       .  A
O832        V836   1.913       .  S
O832        C839   1.267       .  A
O833        V836   1.891       .  S
O833        C838   1.260       .  A
O834        V836   1.895       .  S
O834        C837   1.261       .  A
V835        V836   2.085       .  T
C837       C2146   1.500   1_565  S
C838       C2197   1.478       .  S
C839       C2162   1.481       .  S
C840       C3013   1.469       .  S
O841        V849   1.911       .  S
O841        C851   1.267       .  A
O842        V849   1.910       .  S
O842        C852   1.269       .  A
O843        V849   1.880       .  S
O843        C853   1.260       .  A
O844        V849   1.880       .  S
O844        C854   1.257       .  A
O845        V850   1.906       .  S
O845        C854   1.268       .  A
O846        V850   1.910       .  S
O846        C853   1.266       .  A
O847        V850   1.896       .  S
O847        C852   1.261       .  A
O848        V850   1.898       .  S
O848        C851   1.265       .  A
V849        V850   2.084       .  T
C851       C2101   1.505       .  S
C852       C2133   1.487       .  S
C853       C2114   1.472       .  S
C854       C3877   1.475       .  S
O855        V863   1.914       .  S
O855        C865   1.268       .  A
O856        V863   1.914       .  S
O856        C866   1.269       .  A
O857        V863   1.882       .  S
O857        C867   1.259       .  A
O858        V863   1.890       .  S
O858        C868   1.260       .  A
O859        V864   1.917       .  S
O859        C868   1.268       .  A
O860        V864   1.908       .  S
O860        C867   1.267       .  A
O861        V864   1.891       .  S
O861        C866   1.261       .  A
O862        V864   1.896       .  S
O862        C865   1.264       .  A
V863        V864   2.084       .  T
C865       C2066   1.504       .  S
C866       C2085   1.483       .  S
C867       C3525   1.481       .  S
C868       C2130   1.479       .  S
O869        V877   1.903       .  S
O869        C879   1.268       .  A
O870        V877   1.902       .  S
O870        C880   1.265       .  A
O871        V877   1.885       .  S
O871        C881   1.261       .  A
O872        V877   1.882       .  S
O872        C882   1.262       .  A
O873        V878   1.908       .  S
O873        C882   1.265       .  A
O874        V878   1.900       .  S
O874        C881   1.265       .  A
O875        V878   1.891       .  S
O875        C880   1.263       .  A
O876        V878   1.896       .  S
O876        C879   1.261       .  A
V877        V878   2.080       .  T
C879       C2178   1.496       .  S
C880       C2117   1.491       .  S
C881       C4210   1.490       .  S
C882       C2050   1.485       .  S
O883        V891   1.912       .  S
O883        C893   1.268       .  A
O884        V891   1.911       .  S
O884        C894   1.267       .  A
O885        V891   1.891       .  S
O885        C895   1.261       .  A
O886        V891   1.891       .  S
O886        C896   1.262       .  A
O887        V892   1.903       .  S
O887        C896   1.266       .  A
O888        V892   1.907       .  S
O888        C895   1.266       .  A
O889        V892   1.880       .  S
O889        C894   1.258       .  A
O890        V892   1.884       .  S
O890        C893   1.258       .  A
V891        V892   2.086       .  T
C893       C2258   1.478       .  S
C894       C2034   1.470       .  S
C895       C2082   1.473       .  S
C896       C3221   1.493       .  S
O897        V905   1.906       .  S
O897        C907   1.266       .  A
O898        V905   1.905       .  S
O898        C908   1.266       .  A
O899        V905   1.886       .  S
O899        C909   1.259       .  A
O900        V905   1.889       .  S
O900        C910   1.261       .  A
O901        V906   1.908       .  S
O901        C910   1.266       .  A
O902        V906   1.906       .  S
O902        C909   1.268       .  A
O903        V906   1.886       .  S
O903        C908   1.261       .  A
O904        V906   1.893       .  S
O904        C907   1.264       .  A
V905        V906   2.084       .  T
C907       C2002   1.492       .  S
C908       C2018   1.481       .  S
C909       C3093   1.483       .  S
C910       C2037   1.475       .  S
O911        V919   1.903       .  S
O911        C921   1.267       .  A
O912        V919   1.903       .  S
O912        C922   1.265       .  A
O913        V919   1.886       .  S
O913        C923   1.260       .  A
O914        V919   1.885       .  S
O914        C924   1.258       .  A
O915        V920   1.895       .  S
O915        C924   1.266       .  A
O916        V920   1.904       .  S
O916        C923   1.264       .  A
O917        V920   1.889       .  S
O917        C922   1.262       .  A
O918        V920   1.895       .  S
O918        C921   1.262       .  A
V919        V920   2.086       .  T
C921       C1989   1.491       .  S
C922       C2053   1.477       .  S
C923       C2021   1.467       .  S
C924       C2786   1.469       .  S
O925        V933   1.911       .  S
O925        C935   1.269       .  A
O926        V933   1.913       .  S
O926        C936   1.270       .  A
O927        V933   1.872       .  S
O927        C937   1.256       .  A
O928        V933   1.871       .  S
O928        C938   1.254       .  A
O929        V934   1.909       .  S
O929        C938   1.269       .  A
O930        V934   1.912       .  S
O930        C937   1.268       .  A
O931        V934   1.882       .  S
O931        C936   1.257       .  A
O932        V934   1.887       .  S
O932        C935   1.259       .  A
V933        V934   2.084       .  T
C935       C1938   1.494       .  S
C936       C1970   1.483       .  S
C937       C1954   1.470       .  S
C938       C2949   1.476       .  S
O939        V947   1.914       .  S
O939        C949   1.269       .  A
O940        V947   1.912       .  S
O940        C950   1.268       .  A
O941        V947   1.885       .  S
O941        C951   1.260       .  A
O942        V947   1.886       .  S
O942        C952   1.260       .  A
O943        V948   1.903       .  S
O943        C952   1.266       .  A
O944        V948   1.908       .  S
O944        C951   1.267       .  A
O945        V948   1.887       .  S
O945        C950   1.261       .  A
O946        V948   1.895       .  S
O946        C949   1.261       .  A
V947        V948   2.085       .  T
C949       C2453   1.490       .  S
C950       C1925   1.486       .  S
C951       C1906   1.473       .  S
C952       C3413   1.483       .  S
O953        V961   1.919       .  S
O953        C963   1.269       .  A
O954        V961   1.916       .  S
O954        C964   1.269       .  A
O955        V961   1.883       .  S
O955        C965   1.259       .  A
O956        V961   1.886       .  S
O956        C966   1.259       .  A
O957        V962   1.911       .  S
O957        C966   1.267       .  A
O958        V962   1.909       .  S
O958        C965   1.267       .  A
O959        V962   1.879       .  S
O959        C964   1.258       .  A
O960        V962   1.878       .  S
O960        C963   1.261       .  A
V961        V962   2.086       .  T
C963       C1890   1.499       .  S
C964       C1957   1.471       .  S
C965       C3138   1.474       .  S
C966       C1922   1.470       .  S
O967        V975   1.918       .  S
O967        C977   1.271       .  A
O968        V975   1.916       .  S
O968        C978   1.269       .  A
O969        V975   1.877       .  S
O969        C979   1.259       .  A
O970        V975   1.881       .  S
O970        C980   1.257       .  A
O971        V976   1.914       .  S
O971        C980   1.270       .  A
O972        V976   1.913       .  S
O972        C979   1.268       .  A
O973        V976   1.880       .  S
O973        C978   1.257       .  A
O974        V976   1.886       .  S
O974        C977   1.258       .  A
V975        V976   2.083       .  T
C977       C2309   1.501       .  S
C978       C1874   1.477       .  S
C979       C2693   1.481       .  S
C980       C1973   1.486       .  S
O981        V989   1.904       .  S
O981        C991   1.268       .  A
O982        V989   1.905       .  S
O982        C992   1.266       .  A
O983        V989   1.878       .  S
O983        C993   1.259       .  A
O984        V989   1.878       .  S
O984        C994   1.258       .  A
O985        V990   1.910       .  S
O985        C994   1.266       .  A
O986        V990   1.906       .  S
O986        C993   1.266       .  A
O987        V990   1.897       .  S
O987        C992   1.262       .  A
O988        V990   1.893       .  S
O988        C991   1.261       .  A
V989        V990   2.086       .  T
C991       C1842   1.491       .  S
C992       C1909   1.478       .  S
C993       C4018   1.473       .  S
C994       C1858   1.464       .  S
O995       V1003   1.898       .  S
O995       C1005   1.267       .  A
O996       V1003   1.896       .  S
O996       C1006   1.263       .  A
O997       V1003   1.883       .  S
O997       C1007   1.261       .  A
O998       V1003   1.881       .  S
O998       C1008   1.261       .  A
O999       V1004   1.904       .  S
O999       C1008   1.266       .  A
O1000      V1004   1.912       .  S
O1000      C1007   1.266       .  A
O1001      V1004   1.895       .  S
O1001      C1006   1.264       .  A
O1002      V1004   1.903       .  S
O1002      C1005   1.263       .  A
V1003      V1004   2.081       .  T
C1005      C1826   1.498       .  S
C1006      C1861   1.488       .  S
C1007      C1877   1.477       .  S
C1008      C4258   1.485       .  S
O1009      V1017   1.910       .  S
O1009      C1019   1.268       .  A
O1010      V1017   1.908       .  S
O1010      C1020   1.267       .  A
O1011      V1017   1.882       .  S
O1011      C1021   1.262       .  A
O1012      V1017   1.880       .  S
O1012      C1022   1.260       .  A
O1013      V1018   1.906       .  S
O1013      C1022   1.266       .  A
O1014      V1018   1.913       .  S
O1014      C1021   1.267       .  A
O1015      V1018   1.895       .  S
O1015      C1020   1.261       .  A
O1016      V1018   1.894       .  S
O1016      C1019   1.261       .  A
V1017      V1018   2.082       .  T
C1019      C2149   1.493       .  S
C1020      C1810   1.476       .  S
C1021      C1794   1.491       .  S
C1022      C3173   1.484       .  S
O1023      V1031   1.899       .  S
O1023      C1033   1.265       .  A
O1024      V1031   1.899       .  S
O1024      C1034   1.264       .  A
O1025      V1031   1.884       .  S
O1025      C1035   1.262       .  A
O1026      V1031   1.882       .  S
O1026      C1036   1.262       .  A
O1027      V1032   1.910       .  S
O1027      C1036   1.266       .  A
O1028      V1032   1.906       .  S
O1028      C1035   1.265       .  A
O1029      V1032   1.898       .  S
O1029      C1034   1.263       .  A
O1030      V1032   1.898       .  S
O1030      C1033   1.262       .  A
V1031      V1032   2.084       .  T
C1033      C1845   1.480       .  S
C1034      C1797   1.477       .  S
C1035      C2549   1.491       .  S
C1036      C1781   1.485       .  S
O1037      V1045   1.899       .  S
O1037      C1047   1.268       .  A
O1038      V1045   1.902       .  S
O1038      C1048   1.265       .  A
O1039      V1045   1.872       .  S
O1039      C1049   1.258       .  A
O1040      V1045   1.875       .  S
O1040      C1050   1.260       .  A
O1041      V1046   1.921       .  S
O1041      C1050   1.269       .  A
O1042      V1046   1.913       .  S
O1042      C1049   1.268       .  A
O1043      V1046   1.892       .  S
O1043      C1048   1.262       .  A
O1044      V1046   1.898       .  S
O1044      C1047   1.261       .  A
V1045      V1046   2.081       .  T
C1047      C1746   1.493       .  S
C1048      C1762   1.482       .  S
C1049      C3397   1.490       .  S
C1050      C1813   1.496       .  S
O1051      V1059   1.906       .  S
O1051      C1061   1.269       .  A
O1052      V1059   1.905       .  S
O1052      C1062   1.266       .  A
O1053      V1059   1.878       .  S
O1053      C1063   1.260       .  A
O1054      V1059   1.879       .  S
O1054      C1064   1.258       .  A
O1055      V1060   1.913       .  S
O1055      C1064   1.269       .  A
O1056      V1060   1.915       .  S
O1056      C1063   1.267       .  A
O1057      V1060   1.886       .  S
O1057      C1062   1.259       .  A
O1058      V1060   1.891       .  S
O1058      C1061   1.260       .  A
V1059      V1060   2.085       .  T
C1061      C1941   1.497       .  S
C1062      C1730   1.465       .  S
C1063      C1765   1.481       .  S
C1064      C3733   1.477       .  S
O1065      V1073   1.916       .  S
O1065      C1075   1.270       .  A
O1066      V1073   1.916       .  S
O1066      C1076   1.268       .  A
O1067      V1073   1.886       .  S
O1067      C1077   1.262       .  A
O1068      V1073   1.887       .  S
O1068      C1078   1.260       .  A
O1069      V1074   1.902       .  S
O1069      C1078   1.266       .  A
O1070      V1074   1.898       .  S
O1070      C1077   1.264       .  A
O1071      V1074   1.888       .  S
O1071      C1076   1.260       .  A
O1072      V1074   1.890       .  S
O1072      C1075   1.260       .  A
V1073      V1074   2.084       .  T
C1075      C2229   1.499       .  S
C1076      C1714   1.474       .  S
C1077      C4357   1.487       .  S
C1078      C1733   1.474       .  S
O1079      V1087   1.920       .  S
O1079      C1089   1.272       .  A
O1080      V1087   1.914       .  S
O1080      C1090   1.268       .  A
O1081      V1087   1.878       .  S
O1081      C1091   1.259       .  A
O1082      V1087   1.876       .  S
O1082      C1092   1.257       .  A
O1083      V1088   1.916       .  S
O1083      C1092   1.269       .  A
O1084      V1088   1.922       .  S
O1084      C1091   1.270       .  A
O1085      V1088   1.888       .  S
O1085      C1090   1.259       .  A
O1086      V1088   1.891       .  S
O1086      C1089   1.260       .  A
V1087      V1088   2.085       .  T
C1089      C1698   1.502       .  S
C1090      C1778   1.473       .  S
C1091      C1717   1.483       .  S
C1092      C2725   1.476       .  S
O1093      V1101   1.909       .  S
O1093      C1103   1.268       .  A
O1094      V1101   1.908       .  S
O1094      C1104   1.266       .  A
O1095      V1101   1.892       .  S
O1095      C1105   1.262       .  A
O1096      V1101   1.891       .  S
O1096      C1106   1.260       .  A
O1097      V1102   1.897       .  S
O1097      C1106   1.264       .  A
O1098      V1102   1.910       .  S
O1098      C1105   1.266       .  A
O1099      V1102   1.896       .  S
O1099      C1104   1.265       .  A
O1100      V1102   1.907       .  S
O1100      C1103   1.265       .  A
V1101      V1102   2.085       .  T
C1103      C1701   1.494       .  S
C1104      C1682   1.498       .  S
C1105      C1666   1.477       .  S
C1106      C3042   1.467       .  S
O1107      V1115   1.918       .  S
O1107      C1117   1.269       .  A
O1108      V1115   1.912       .  S
O1108      C1118   1.270       .  A
O1109      V1115   1.873       .  S
O1109      C1119   1.256       .  A
O1110      V1115   1.883       .  S
O1110      C1120   1.258       .  A
O1111      V1116   1.915       .  S
O1111      C1120   1.269       .  A
O1112      V1116   1.913       .  S
O1112      C1119   1.270       .  A
O1113      V1116   1.887       .  S
O1113      C1118   1.258       .  A
O1114      V1116   1.887       .  S
O1114      C1117   1.262       .  A
V1115      V1116   2.083       .  T
C1117      C2069   1.499       .  S
C1118      C1669   1.483       .  S
C1119      C3685   1.478       .  S
C1120      C1653   1.480       .  S
O1121      V1129   1.905       .  S
O1121      C1131   1.269       .  A
O1122      V1129   1.900       .  S
O1122      C1132   1.265       .  A
O1123      V1129   1.880       .  S
O1123      C1133   1.260       .  A
O1124      V1129   1.879       .  S
O1124      C1134   1.257       .  A
O1125      V1130   1.911       .  S
O1125      C1134   1.268       .  A
O1126      V1130   1.916       .  S
O1126      C1133   1.268       .  A
O1127      V1130   1.891       .  S
O1127      C1132   1.262       .  A
O1128      V1130   1.893       .  S
O1128      C1131   1.261       .  A
V1129      V1130   2.083       .  T
C1131      C1986   1.498       .  S
C1132      C1637   1.486       .  S
C1133      C1621   1.480       .  S
C1134      C2642   1.469       .  S
O1135      V1143   1.923       .  S
O1135      C1145   1.272       .  A
O1136      V1143   1.916       .  S
O1136      C1146   1.269       .  A
O1137      V1143   1.880       .  S
O1137      C1147   1.260       .  A
O1138      V1143   1.890       .  S
O1138      C1148   1.262       .  A
O1139      V1144   1.913       .  S
O1139      C1148   1.268       .  A
O1140      V1144   1.910       .  S
O1140      C1147   1.267       .  A
O1141      V1144   1.885       .  S
O1141      C1146   1.258       .  A
O1142      V1144   1.887       .  S
O1142      C1145   1.259       .  A
V1143      V1144   2.083       .  T
C1145      C1602   1.500       .  S
C1146      C1618   1.478       .  S
C1147      C3253   1.488       .  S
C1148      C1685   1.485       .  S
O1149      V1157   1.905       .  S
O1149      C1159   1.266       .  A
O1150      V1157   1.906       .  S
O1150      C1160   1.269       .  A
O1151      V1157   1.885       .  S
O1151      C1161   1.260       .  A
O1152      V1157   1.880       .  S
O1152      C1162   1.260       .  A
O1153      V1158   1.906       .  S
O1153      C1162   1.266       .  A
O1154      V1158   1.914       .  S
O1154      C1161   1.267       .  A
O1155      V1158   1.887       .  S
O1155      C1160   1.259       .  A
O1156      V1158   1.894       .  S
O1156      C1159   1.263       .  A
V1157      V1158   2.084       .  T
C1159      C1570   1.482       .  S
C1160      C1650   1.486       .  S
C1161      C1589   1.474       .  S
C1162      C4309   1.488       .  S
O1163      V1171   1.916       .  S
O1163      C1173   1.271       .  A
O1164      V1171   1.919       .  S
O1164      C1174   1.270       .  A
O1165      V1171   1.872       .  S
O1165      C1175   1.255       .  A
O1166      V1171   1.874       .  S
O1166      C1176   1.259       .  A
O1167      V1172   1.912       .  S
O1167      C1176   1.267       .  A
O1168      V1172   1.912       .  S
O1168      C1175   1.268       .  A
O1169      V1172   1.883       .  S
O1169      C1174   1.258       .  A
O1170      V1172   1.880       .  S
O1170      C1173   1.257       .  A
V1171      V1172   2.084       .  T
C1173      C1749   1.493       .  S
C1174      C1586   1.485       .  S
C1175      C3941   1.465       .  S
C1176      C1634   1.474       .  S
O1177      V1185   1.916       .  S
O1177      C1187   1.270       .  A
O1178      V1185   1.911       .  S
O1178      C1188   1.268       .  A
O1179      V1185   1.881       .  S
O1179      C1189   1.259       .  A
O1180      V1185   1.878       .  S
O1180      C1190   1.259       .  A
O1181      V1186   1.909       .  S
O1181      C1190   1.267       .  A
O1182      V1186   1.910       .  S
O1182      C1189   1.267       .  A
O1183      V1186   1.887       .  S
O1183      C1188   1.261       .  A
O1184      V1186   1.888       .  S
O1184      C1187   1.259       .  A
V1185      V1186   2.083       .  T
C1187      C1829   1.496       .  S
C1188      C1554   1.488       .  S
C1189      C1541   1.475       .  S
C1190      C3621   1.482       .  S
O1191      V1199   1.911       .  S
O1191      C1201   1.271       .  A
O1192      V1199   1.907       .  S
O1192      C1202   1.267       .  A
O1193      V1199   1.880       .  S
O1193      C1203   1.258       .  A
O1194      V1199   1.880       .  S
O1194      C1204   1.258       .  A
O1195      V1200   1.911       .  S
O1195      C1204   1.266       .  A
O1196      V1200   1.908       .  S
O1196      C1203   1.267       .  A
O1197      V1200   1.891       .  S
O1197      C1202   1.263       .  A
O1198      V1200   1.901       .  S
O1198      C1201   1.262       .  A
V1199      V1200   2.083       .  T
C1201      C1605   1.506       .  S
C1202      C1522   1.495       .  S
C1203      C3445   1.471       .  S
C1204      C1557   1.467       .  S
O1205      V1213   1.917       .  S
O1205      C1215   1.271       .  A
O1206      V1213   1.912       .  S
O1206      C1216   1.268       .  A
O1207      V1213   1.872       .  S
O1207      C1217   1.255       .  A
O1208      V1213   1.872       .  S
O1208      C1218   1.256       .  A
O1209      V1214   1.908       .  S
O1209      C1218   1.267       .  A
O1210      V1214   1.906       .  S
O1210      C1217   1.267       .  A
O1211      V1214   1.883       .  S
O1211      C1216   1.261       .  A
O1212      V1214   1.892       .  S
O1212      C1215   1.260       .  A
V1213      V1214   2.084       .  T
C1215      C1490   1.497       .  S
C1216      C1538   1.490       .  S
C1217      C2978   1.458       .  S
C1218      C1506   1.476       .  S
O1219      V1227   1.908       .  S
O1219      C1229   1.266       .  A
O1220      V1227   1.904       .  S
O1220      C1230   1.265       .  A
O1221      V1227   1.887       .  S
O1221      C1231   1.260       .  A
O1222      V1227   1.884       .  S
O1222      C1232   1.258       .  A
O1223      V1228   1.908       .  S
O1223      C1232   1.269       .  A
O1224      V1228   1.909       .  S
O1224      C1231   1.266       .  A
O1225      V1228   1.884       .  S
O1225      C1230   1.259       .  A
O1226      V1228   1.888       .  S
O1226      C1229   1.263       .  A
V1227      V1228   2.084       .  T
C1229      C1573   1.495       .  S
C1230      C1509   1.463       .  S
C1231      C1474   1.469       .  S
C1232      C2869   1.494       .  S
O1233      V1241   1.898       .  S
O1233      C1243   1.264       .  A
O1234      V1241   1.902       .  S
O1234      C1244   1.264       .  A
O1235      V1241   1.885       .  S
O1235      C1245   1.262       .  A
O1236      V1241   1.885       .  S
O1236      C1246   1.261       .  A
O1237      V1242   1.906       .  S
O1237      C1246   1.265       .  A
O1238      V1242   1.899       .  S
O1238      C1245   1.264       .  A
O1239      V1242   1.893       .  S
O1239      C1244   1.264       .  A
O1240      V1242   1.901       .  S
O1240      C1243   1.265       .  A
V1241      V1242   2.083       .  T
C1243      C1893   1.490       .  S
C1244      C1477   1.492       .  S
C1245      C2613   1.485       .  S
C1246      C1458   1.475       .  S
O1247      V1255   1.909       .  S
O1247      C1257   1.270       .  A
O1248      V1255   1.910       .  S
O1248      C1258   1.269       .  A
O1249      V1255   1.879       .  S
O1249      C1259   1.259       .  A
O1250      V1255   1.876       .  S
O1250      C1260   1.256       .  A
O1251      V1256   1.910       .  S
O1251      C1260   1.268       .  A
O1252      V1256   1.914       .  S
O1252      C1259   1.268       .  A
O1253      V1256   1.882       .  S
O1253      C1258   1.258       .  A
O1254      V1256   1.885       .  S
O1254      C1257   1.258       .  A
V1255      V1256   2.085       .  T
C1257      C1442   1.491       .  S
C1258      C1461   1.475       .  S
C1259      C1525   1.479       .  S
C1260      C3989   1.464       .  S
O1261      V1269   1.906       .  S
O1261      C1271   1.268       .  A
O1262      V1269   1.903       .  S
O1262      C1272   1.265       .  A
O1263      V1269   1.885       .  S
O1263      C1273   1.261       .  A
O1264      V1269   1.886       .  S
O1264      C1274   1.259       .  A
O1265      V1270   1.901       .  S
O1265      C1274   1.266       .  A
O1266      V1270   1.901       .  S
O1266      C1273   1.265       .  A
O1267      V1270   1.894       .  S
O1267      C1272   1.262       .  A
O1268      V1270   1.897       .  S
O1268      C1271   1.262       .  A
V1269      V1270   2.083       .  T
C1271      C2357   1.494       .  S
C1272      C1426   1.483       .  S
C1273      C2837   1.483       .  S
C1274      C1413   1.471       .  S
O1275      V1283   1.919       .  S
O1275      C1285   1.272       .  A
O1276      V1283   1.916       .  S
O1276      C1286   1.272       .  A
O1277      V1283   1.887       .  S
O1277      C1287   1.261       .  A
O1278      V1283   1.891       .  S
O1278      C1288   1.262       .  A
O1279      V1284   1.917       .  S
O1279      C1288   1.268       .  A
O1280      V1284   1.909       .  S
O1280      C1287   1.268       .  A
O1281      V1284   1.888       .  S
O1281      C1286   1.258       .  A
O1282      V1284   1.892       .  S
O1282      C1285   1.260       .  A
V1283      V1284   2.078       .  T
C1285      C1493   1.506       .  S
C1286      C1394   1.499       .  S
C1287      C3301   1.491       .  S
C1288      C1378   1.484       .  S
O1289      V1297   1.913       .  S
O1289      C1299   1.268       .  A
O1290      V1297   1.914       .  S
O1290      C1300   1.269       .  A
O1291      V1297   1.878       .  S
O1291      C1301   1.260       .  A
O1292      V1297   1.875       .  S
O1292      C1302   1.259       .  A
O1293      V1298   1.911       .  S
O1293      C1302   1.267       .  A
O1294      V1298   1.915       .  S
O1294      C1301   1.268       .  A
O1295      V1298   1.892       .  S
O1295      C1300   1.260       .  A
O1296      V1298   1.897       .  S
O1296      C1299   1.264       .  A
V1297      V1298   2.083       .  T
C1299      C2098   1.495       .  S
C1300      C1381   1.485       .  S
C1301      C1429   1.484       .  S
C1302      C2581   1.491       .  S
O1303      V1311   1.906       .  S
O1303      C1313   1.267       .  A
O1304      V1311   1.905       .  S
O1304      C1314   1.266       .  A
O1305      V1311   1.884       .  S
O1305      C1315   1.259       .  A
O1306      V1311   1.883       .  S
O1306      C1316   1.258       .  A
O1307      V1312   1.904       .  S
O1307      C1316   1.269       .  A
O1308      V1312   1.906       .  S
O1308      C1315   1.265       .  A
O1309      V1312   1.886       .  S
O1309      C1314   1.259       .  A
O1310      V1312   1.890       .  S
O1310      C1313   1.260       .  A
V1311      V1312   2.087       .  T
C1313      C1445   1.479       .  S
C1314      C1410   1.467       .  S
C1315      C1362   1.465       .  S
C1316      C4165   1.486       .  S
O1317      V1325   1.905       .  S
O1317      C1327   1.266       .  A
O1318      V1325   1.899       .  S
O1318      C1328   1.267       .  A
O1319      V1325   1.889       .  S
O1319      C1329   1.260       .  A
O1320      V1325   1.878       .  S
O1320      C1330   1.258       .  A
O1321      V1326   1.908       .  S
O1321      C1330   1.266       .  A
O1322      V1326   1.915       .  S
O1322      C1329   1.268       .  A
O1323      V1326   1.896       .  S
O1323      C1328   1.261       .  A
O1324      V1326   1.899       .  S
O1324      C1327   1.265       .  A
V1325      V1326   2.085       .  T
C1327      C2325   1.498       .  S
C1328      C1346   1.488       .  S
C1329      C1397   1.476       .  S
C1330      C3490   1.467       .  S
O1331      V1339   1.914       .  S
O1331      C1341   1.268       .  A
O1332      V1339   1.907       .  S
O1332      C1342   1.270       .  A
O1333      V1339   1.888       .  S
O1333      C1343   1.261       .  A
O1334      V1339   1.890       .  S
O1334      C1344   1.263       .  A
O1335      V1340   1.906       .  S
O1335      C1344   1.266       .  A
O1336      V1340   1.904       .  S
O1336      C1343   1.266       .  A
O1337      V1340   1.877       .  S
O1337      C1342   1.255       .  A
O1338      V1340   1.878       .  S
O1338      C1341   1.258       .  A
V1339      V1340   2.083       .  T
C1341      C1349   1.475       .  S
C1342      C3637   1.485       .  S
C1343      C1365   1.480       .  S
C1344      C2005   1.495       .  S
C1345      C1346   1.402       .  A
C1345      C1350   1.399       .  A
C1345      H1352   1.082       .  S
C1346      C1347   1.426       .  A
C1347      C1348   1.411       .  A
C1347      C1354   1.519       .  S
C1348      C1349   1.400       .  A
C1348      H1353   1.083       .  S
C1349      C1350   1.418       .  A
C1350      C1351   1.522       .  S
C1351      F1355   1.385       .  S
C1351      F1356   1.382       .  S
C1351      F1357   1.381       .  S
C1354      F1358   1.382       .  S
C1354      F1359   1.384       .  S
C1354      F1360   1.385       .  S
C1361      C1362   1.400       .  A
C1361      C1366   1.405       .  A
C1361      H1368   1.083       .  S
C1362      C1363   1.409       .  A
C1363      C1364   1.405       .  A
C1363      C1370   1.518       .  S
C1364      C1365   1.408       .  A
C1364      H1369   1.083       .  S
C1365      C1366   1.418       .  A
C1366      C1367   1.519       .  S
C1367      F1371   1.383       .  S
C1367      F1372   1.383       .  S
C1367      F1373   1.384       .  S
C1370      F1374   1.383       .  S
C1370      F1375   1.383       .  S
C1370      F1376   1.385       .  S
C1377      C1378   1.402       .  A
C1377      C1382   1.407       .  A
C1377      H1384   1.083       .  S
C1378      C1379   1.419       .  A
C1379      C1380   1.410       .  A
C1379      C1386   1.515       .  S
C1380      C1381   1.403       .  A
C1380      H1385   1.083       .  S
C1381      C1382   1.421       .  A
C1382      C1383   1.520       .  S
C1383      F1387   1.385       .  S
C1383      F1388   1.383       .  S
C1383      F1389   1.382       .  S
C1386      F1390   1.382       .  S
C1386      F1391   1.382       .  S
C1386      F1392   1.385       .  S
C1393      C1394   1.406       .  A
C1393      C1398   1.405       .  A
C1393      H1400   1.082       .  S
C1394      C1395   1.433       .  A
C1395      C1396   1.411       .  A
C1395      C1402   1.522       .  S
C1396      C1397   1.395       .  A
C1396      H1401   1.083       .  S
C1397      C1398   1.414       .  A
C1398      C1399   1.517       .  S
C1399      F1403   1.385       .  S
C1399      F1404   1.383       .  S
C1399      F1405   1.381       .  S
C1402      F1406   1.382       .  S
C1402      F1407   1.381       .  S
C1402      F1408   1.385       .  S
C1409      C1410   1.402       .  A
C1409      C1414   1.405       .  A
C1409      H1416   1.083       .  S
C1410      C1411   1.412       .  A
C1411      C1412   1.404       .  A
C1411      C1418   1.518       .  S
C1412      C1413   1.404       .  A
C1412      H1417   1.083       .  S
C1413      C1414   1.416       .  A
C1414      C1415   1.520       .  S
C1415      F1419   1.384       .  S
C1415      F1420   1.383       .  S
C1415      F1421   1.383       .  S
C1418      F1422   1.383       .  S
C1418      F1423   1.382       .  S
C1418      F1424   1.384       .  S
C1425      C1426   1.409       .  A
C1425      C1430   1.410       .  A
C1425      H1432   1.082       .  S
C1426      C1427   1.416       .  A
C1427      C1428   1.402       .  A
C1427      C1434   1.522       .  S
C1428      C1429   1.407       .  A
C1428      H1433   1.083       .  S
C1429      C1430   1.415       .  A
C1430      C1431   1.518       .  S
C1431      F1435   1.385       .  S
C1431      F1436   1.384       .  S
C1431      F1437   1.383       .  S
C1434      F1438   1.384       .  S
C1434      F1439   1.382       .  S
C1434      F1440   1.385       .  S
C1441      C1442   1.405       .  A
C1441      C1446   1.406       .  A
C1441      H1448   1.082       .  S
C1442      C1443   1.428       .  A
C1443      C1444   1.407       .  A
C1443      C1450   1.522       .  S
C1444      C1445   1.399       .  A
C1444      H1449   1.083       .  S
C1445      C1446   1.419       .  A
C1446      C1447   1.521       .  S
C1447      F1451   1.385       .  S
C1447      F1452   1.383       .  S
C1447      F1453   1.383       .  S
C1450      F1454   1.383       .  S
C1450      F1455   1.383       .  S
C1450      F1456   1.385       .  S
C1457      C1458   1.401       .  A
C1457      C1462   1.403       .  A
C1457      H1464   1.083       .  S
C1458      C1459   1.418       .  A
C1459      C1460   1.407       .  A
C1459      C1466   1.518       .  S
C1460      C1461   1.402       .  A
C1460      H1465   1.083       .  S
C1461      C1462   1.420       .  A
C1462      C1463   1.521       .  S
C1463      F1467   1.385       .  S
C1463      F1468   1.382       .  S
C1463      F1469   1.383       .  S
C1466      F1470   1.381       .  S
C1466      F1471   1.383       .  S
C1466      F1472   1.385       .  S
C1473      C1474   1.401       .  A
C1473      C1478   1.408       .  A
C1473      H1480   1.080       .  S
C1474      C1475   1.407       .  A
C1475      C1476   1.405       .  A
C1475      C1482   1.517       .  S
C1476      C1477   1.412       .  A
C1476      H1481   1.081       .  S
C1477      C1478   1.425       .  A
C1478      C1479   1.521       .  S
C1479      F1483   1.385       .  S
C1479      F1484   1.383       .  S
C1479      F1485   1.384       .  S
C1482      F1486   1.383       .  S
C1482      F1487   1.383       .  S
C1482      F1488   1.384       .  S
C1489      C1490   1.401       .  A
C1489      C1494   1.411       .  A
C1489      H1496   1.083       .  S
C1490      C1491   1.425       .  A
C1491      C1492   1.412   1_545  A
C1491      C1498   1.522       .  S
C1492      C1493   1.407       .  A
C1492      H1497   1.082       .  S
C1493      C1494   1.431   1_565  A
C1494      C1495   1.522       .  S
C1495      F1499   1.385       .  S
C1495      F1500   1.383       .  S
C1495      F1501   1.384       .  S
C1498      F1502   1.385   1_545  S
C1498      F1503   1.383       .  S
C1498      F1504   1.383       .  S
C1505      C1506   1.408       .  A
C1505      C1510   1.408       .  A
C1505      H1512   1.075       .  S
C1506      C1507   1.421       .  A
C1507      C1508   1.401       .  A
C1507      C1514   1.521       .  S
C1508      C1509   1.399       .  A
C1508      H1513   1.074       .  S
C1509      C1510   1.411       .  A
C1510      C1511   1.518       .  S
C1511      F1515   1.385       .  S
C1511      F1516   1.383       .  S
C1511      F1517   1.383       .  S
C1514      F1518   1.384       .  S
C1514      F1519   1.383       .  S
C1514      F1520   1.385       .  S
C1521      C1522   1.414       .  A
C1521      C1526   1.408       .  A
C1521      H1528   1.082       .  S
C1522      C1523   1.423       .  A
C1523      C1524   1.406       .  A
C1523      C1530   1.521       .  S
C1524      C1525   1.404       .  A
C1524      H1529   1.083       .  S
C1525      C1526   1.410       .  A
C1526      C1527   1.518       .  S
C1527      F1531   1.384       .  S
C1527      F1532   1.384       .  S
C1527      F1533   1.382       .  S
C1530      F1534   1.384       .  S
C1530      F1535   1.383       .  S
C1530      F1536   1.385       .  S
C1537      C1538   1.413       .  A
C1537      C1542   1.406       .  A
C1537      H1544   1.082       .  S
C1538      C1539   1.419       .  A
C1539      C1540   1.406       .  A
C1539      C1546   1.520       .  S
C1540      C1541   1.405       .  A
C1540      H1545   1.083       .  S
C1541      C1542   1.410       .  A
C1542      C1543   1.519       .  S
C1543      F1547   1.385       .  S
C1543      F1548   1.384       .  S
C1543      F1549   1.382       .  S
C1546      F1550   1.384       .  S
C1546      F1551   1.383       .  S
C1546      F1552   1.385       .  S
C1553      C1554   1.411       .  A
C1553      C1558   1.405       .  A
C1553      H1560   1.083       .  S
C1554      C1555   1.421       .  A
C1555      C1556   1.408       .  A
C1555      C1562   1.519       .  S
C1556      C1557   1.401       .  A
C1556      H1561   1.084       .  S
C1557      C1558   1.408       .  A
C1558      C1559   1.518       .  S
C1559      F1563   1.384       .  S
C1559      F1564   1.384       .  S
C1559      F1565   1.382       .  S
C1562      F1566   1.384       .  S
C1562      F1567   1.383       .  S
C1562      F1568   1.385       .  S
C1569      C1570   1.405       .  A
C1569      C1574   1.408   1_455  A
C1569      H1576   1.083       .  S
C1570      C1571   1.412       .  A
C1571      C1572   1.406   1_455  A
C1571      C1578   1.518       .  S
C1572      C1573   1.412       .  A
C1572      H1577   1.082       .  S
C1573      C1574   1.423       .  A
C1574      C1575   1.520       .  S
C1575      F1579   1.385       .  S
C1575      F1580   1.383       .  S
C1575      F1581   1.382       .  S
C1578      F1582   1.384       .  S
C1578      F1583   1.382       .  S
C1578      F1584   1.385       .  S
C1585      C1586   1.404       .  A
C1585      C1590   1.409       .  A
C1585      H1592   1.082       .  S
C1586      C1587   1.424       .  A
C1587      C1588   1.405       .  A
C1587      C1594   1.521       .  S
C1588      C1589   1.398       .  A
C1588      H1593   1.083       .  S
C1589      C1590   1.416       .  A
C1590      C1591   1.516       .  S
C1591      F1595   1.385       .  S
C1591      F1596   1.383       .  S
C1591      F1597   1.380       .  S
C1594      F1598   1.383       .  S
C1594      F1599   1.383       .  S
C1594      F1600   1.385       .  S
C1601      C1602   1.404       .  A
C1601      C1606   1.416       .  A
C1601      H1608   1.082       .  S
C1602      C1603   1.427       .  A
C1603      C1604   1.408       .  A
C1603      C1610   1.524       .  S
C1604      C1605   1.404       .  A
C1604      H1609   1.082       .  S
C1605      C1606   1.429       .  A
C1606      C1607   1.520       .  S
C1607      F1611   1.385       .  S
C1607      F1612   1.384       .  S
C1607      F1613   1.383       .  S
C1610      F1614   1.383       .  S
C1610      F1615   1.383       .  S
C1610      F1616   1.385       .  S
C1617      C1618   1.403       .  A
C1617      C1622   1.410       .  A
C1617      H1624   1.083       .  S
C1618      C1619   1.418       .  A
C1619      C1620   1.404       .  A
C1619      C1626   1.521       .  S
C1620      C1621   1.403       .  A
C1620      H1625   1.083       .  S
C1621      C1622   1.418       .  A
C1622      C1623   1.517       .  S
C1623      F1627   1.384       .  S
C1623      F1628   1.383       .  S
C1623      F1629   1.382       .  S
C1626      F1630   1.382       .  S
C1626      F1631   1.382       .  S
C1626      F1632   1.385       .  S
C1633      C1634   1.402       .  A
C1633      C1638   1.400       .  A
C1633      H1640   1.083       .  S
C1634      C1635   1.411       .  A
C1635      C1636   1.409       .  A
C1635      C1642   1.518       .  S
C1636      C1637   1.413       .  A
C1636      H1641   1.083       .  S
C1637      C1638   1.420       .  A
C1638      C1639   1.522       .  S
C1639      F1643   1.385       .  S
C1639      F1644   1.383       .  S
C1639      F1645   1.384       .  S
C1642      F1646   1.382       .  S
C1642      F1647   1.384       .  S
C1642      F1648   1.385       .  S
C1649      C1650   1.401       .  A
C1649      C1654   1.402       .  A
C1649      H1656   1.083       .  S
C1650      C1651   1.425       .  A
C1651      C1652   1.409       .  A
C1651      C1658   1.520       .  S
C1652      C1653   1.400       .  A
C1652      H1657   1.083       .  S
C1653      C1654   1.422       .  A
C1654      C1655   1.521       .  S
C1655      F1659   1.385       .  S
C1655      F1660   1.382       .  S
C1655      F1661   1.381       .  S
C1658      F1662   1.385       .  S
C1658      F1663   1.383       .  S
C1658      F1664   1.384       .  S
C1665      C1666   1.400       .  A
C1665      C1670   1.408       .  A
C1665      H1672   1.083       .  S
C1666      C1667   1.418       .  A
C1667      C1668   1.406       .  A
C1667      C1674   1.516       .  S
C1668      C1669   1.401       .  A
C1668      H1673   1.083       .  S
C1669      C1670   1.423       .  A
C1670      C1671   1.520       .  S
C1671      F1675   1.385       .  S
C1671      F1676   1.383       .  S
C1671      F1677   1.383       .  S
C1674      F1678   1.382       .  S
C1674      F1679   1.377       .  S
C1674      F1680   1.385       .  S
C1681      C1682   1.412       .  A
C1681      C1686   1.408       .  A
C1681      H1688   1.082       .  S
C1682      C1683   1.424       .  A
C1683      C1684   1.410       .  A
C1683      C1690   1.522       .  S
C1684      C1685   1.405       .  A
C1684      H1689   1.083       .  S
C1685      C1686   1.412       .  A
C1686      C1687   1.517       .  S
C1687      F1691   1.384       .  S
C1687      F1692   1.383       .  S
C1687      F1693   1.384       .  S
C1690      F1694   1.383       .  S
C1690      F1695   1.383       .  S
C1690      F1696   1.385       .  S
C1697      C1698   1.406       .  A
C1697      C1702   1.412   1_556  A
C1697      H1704   1.082       .  S
C1698      C1699   1.429   1_556  A
C1699      C1700   1.411       .  A
C1699      C1706   1.521       .  S
C1700      C1701   1.401       .  A
C1700      H1705   1.083       .  S
C1701      C1702   1.422       .  A
C1702      C1703   1.519       .  S
C1703      F1707   1.385   1_554  S
C1703      F1708   1.383       .  S
C1703      F1709   1.382       .  S
C1706      F1710   1.383       .  S
C1706      F1711   1.384   1_554  S
C1706      F1712   1.385       .  S
C1713      C1714   1.398       .  A
C1713      C1718   1.401       .  A
C1713      H1720   1.085       .  S
C1714      C1715   1.415       .  A
C1715      C1716   1.413       .  A
C1715      C1722   1.516       .  S
C1716      C1717   1.407       .  A
C1716      H1721   1.081       .  S
C1717      C1718   1.421       .  A
C1718      C1719   1.519       .  S
C1719      F1723   1.384       .  S
C1719      F1724   1.383       .  S
C1719      F1725   1.383       .  S
C1722      F1726   1.383       .  S
C1722      F1727   1.383       .  S
C1722      F1728   1.384       .  S
C1729      C1730   1.399       .  A
C1729      C1734   1.403       .  A
C1729      H1736   1.084       .  S
C1730      C1731   1.410       .  A
C1731      C1732   1.405       .  A
C1731      C1738   1.515       .  S
C1732      C1733   1.405       .  A
C1732      H1737   1.083       .  S
C1733      C1734   1.419       .  A
C1734      C1735   1.520       .  S
C1735      F1739   1.385       .  S
C1735      F1740   1.384       .  S
C1735      F1741   1.383       .  S
C1738      F1742   1.383       .  S
C1738      F1743   1.382       .  S
C1738      F1744   1.385       .  S
C1745      C1746   1.402       .  A
C1745      C1750   1.404       .  A
C1745      H1752   1.082       .  S
C1746      C1747   1.425       .  A
C1747      C1748   1.410       .  A
C1747      C1754   1.520       .  S
C1748      C1749   1.405       .  A
C1748      H1753   1.082       .  S
C1749      C1750   1.428       .  A
C1750      C1751   1.524       .  S
C1751      F1755   1.385       .  S
C1751      F1756   1.383       .  S
C1751      F1757   1.384       .  S
C1754      F1758   1.383       .  S
C1754      F1759   1.382       .  S
C1754      F1760   1.385       .  S
C1761      C1762   1.410       .  A
C1761      C1766   1.411       .  A
C1761      H1768   1.083       .  S
C1762      C1763   1.416       .  A
C1763      C1764   1.402       .  A
C1763      C1770   1.521       .  S
C1764      C1765   1.406       .  A
C1764      H1769   1.083       .  S
C1765      C1766   1.414       .  A
C1766      C1767   1.517       .  S
C1767      F1771   1.385       .  S
C1767      F1772   1.383       .  S
C1767      F1773   1.383       .  S
C1770      F1774   1.383       .  S
C1770      F1775   1.383       .  S
C1770      F1776   1.385       .  S
C1777      C1778   1.401       .  A
C1777      C1782   1.411       .  A
C1777      H1784   1.083       .  S
C1778      C1779   1.412       .  A
C1779      C1780   1.402       .  A
C1779      C1786   1.516       .  S
C1780      C1781   1.406       .  A
C1780      H1785   1.083       .  S
C1781      C1782   1.422       .  A
C1782      C1783   1.519       .  S
C1783      F1787   1.384       .  S
C1783      F1788   1.383       .  S
C1783      F1789   1.383       .  S
C1786      F1790   1.382       .  S
C1786      F1791   1.382       .  S
C1786      F1792   1.385       .  S
C1793      C1794   1.409       .  A
C1793      C1798   1.401       .  A
C1793      H1800   1.082       .  S
C1794      C1795   1.420       .  A
C1795      C1796   1.411       .  A
C1795      C1802   1.518       .  S
C1796      C1797   1.405       .  A
C1796      H1801   1.083       .  S
C1797      C1798   1.414       .  A
C1798      C1799   1.522       .  S
C1799      F1803   1.385       .  S
C1799      F1804   1.380       .  S
C1799      F1805   1.382       .  S
C1802      F1806   1.383       .  S
C1802      F1807   1.383       .  S
C1802      F1808   1.385       .  S
C1809      C1810   1.405       .  A
C1809      C1814   1.414       .  A
C1809      H1816   1.083       .  S
C1810      C1811   1.409       .  A
C1811      C1812   1.400       .  A
C1811      C1818   1.519       .  S
C1812      C1813   1.412       .  A
C1812      H1817   1.081       .  S
C1813      C1814   1.422       .  A
C1814      C1815   1.518       .  S
C1815      F1819   1.385       .  S
C1815      F1820   1.383       .  S
C1815      F1821   1.384       .  S
C1818      F1822   1.382       .  S
C1818      F1823   1.382       .  S
C1818      F1824   1.385       .  S
C1825      C1826   1.405       .  A
C1825      C1830   1.406   1_556  A
C1825      H1832   1.082       .  S
C1826      C1827   1.425   1_556  A
C1827      C1828   1.412       .  A
C1827      C1834   1.520       .  S
C1828      C1829   1.405       .  A
C1828      H1833   1.082       .  S
C1829      C1830   1.426       .  A
C1830      C1831   1.524       .  S
C1831      F1835   1.385   1_554  S
C1831      F1836   1.384       .  S
C1831      F1837   1.383       .  S
C1834      F1838   1.383       .  S
C1834      F1839   1.384       .  S
C1834      F1840   1.385       .  S
C1841      C1842   1.407       .  A
C1841      C1846   1.406   1_655  A
C1841      H1848   1.082       .  S
C1842      C1843   1.425   1_655  A
C1843      C1844   1.407       .  A
C1843      C1850   1.520       .  S
C1844      C1845   1.401       .  A
C1844      H1849   1.083       .  S
C1845      C1846   1.417       .  A
C1846      C1847   1.520   1_455  S
C1847      F1851   1.385       .  S
C1847      F1852   1.382   1_655  S
C1847      F1853   1.383   1_655  S
C1850      F1854   1.382   1_455  S
C1850      F1855   1.383       .  S
C1850      F1856   1.385       .  S
C1857      C1858   1.398       .  A
C1857      C1862   1.404       .  A
C1857      H1864   1.084       .  S
C1858      C1859   1.407       .  A
C1859      C1860   1.405       .  A
C1859      C1866   1.516       .  S
C1860      C1861   1.411       .  A
C1860      H1865   1.082       .  S
C1861      C1862   1.425       .  A
C1862      C1863   1.521       .  S
C1863      F1867   1.385       .  S
C1863      F1868   1.384       .  S
C1863      F1869   1.383       .  S
C1866      F1870   1.382       .  S
C1866      F1871   1.383       .  S
C1866      F1872   1.384       .  S
C1873      C1874   1.403       .  A
C1873      C1878   1.410       .  A
C1873      H1880   1.083       .  S
C1874      C1875   1.421       .  A
C1875      C1876   1.402       .  A
C1875      C1882   1.522       .  S
C1876      C1877   1.400       .  A
C1876      H1881   1.083       .  S
C1877      C1878   1.418       .  A
C1878      C1879   1.517       .  S
C1879      F1883   1.385       .  S
C1879      F1884   1.383       .  S
C1879      F1885   1.382       .  S
C1882      F1886   1.382       .  S
C1882      F1887   1.381       .  S
C1882      F1888   1.385       .  S
C1889      C1890   1.411       .  A
C1889      C1894   1.403       .  A
C1889      H1896   1.082       .  S
C1890      C1891   1.421       .  A
C1891      C1892   1.412       .  A
C1891      C1898   1.519       .  S
C1892      C1893   1.409       .  A
C1892      H1897   1.083       .  S
C1893      C1894   1.418       .  A
C1894      C1895   1.522       .  S
C1895      F1899   1.385       .  S
C1895      F1900   1.383       .  S
C1895      F1901   1.384       .  S
C1898      F1902   1.383       .  S
C1898      F1903   1.382       .  S
C1898      F1904   1.385       .  S
C1905      C1906   1.402       .  A
C1905      C1910   1.406       .  A
C1905      H1912   1.084       .  S
C1906      C1907   1.415       .  A
C1907      C1908   1.407       .  A
C1907      C1914   1.518       .  S
C1908      C1909   1.404       .  A
C1908      H1913   1.084       .  S
C1909      C1910   1.417       .  A
C1910      C1911   1.516       .  S
C1911      F1915   1.385       .  S
C1911      F1916   1.382       .  S
C1911      F1917   1.382       .  S
C1914      F1918   1.382       .  S
C1914      F1919   1.384       .  S
C1914      F1920   1.384       .  S
C1921      C1922   1.401       .  A
C1921      C1926   1.409       .  A
C1921      H1928   1.084       .  S
C1922      C1923   1.410       .  A
C1923      C1924   1.404       .  A
C1923      C1930   1.517       .  S
C1924      C1925   1.408       .  A
C1924      H1929   1.083       .  S
C1925      C1926   1.421       .  A
C1926      C1927   1.518       .  S
C1927      F1931   1.385       .  S
C1927      F1932   1.384       .  S
C1927      F1933   1.382       .  S
C1930      F1934   1.383       .  S
C1930      F1935   1.381       .  S
C1930      F1936   1.385       .  S
C1937      C1938   1.404       .  A
C1937      C1942   1.409       .  A
C1937      H1944   1.082       .  S
C1938      C1939   1.426       .  A
C1939      C1940   1.406       .  A
C1939      C1946   1.523       .  S
C1940      C1941   1.404       .  A
C1940      H1945   1.082       .  S
C1941      C1942   1.427       .  A
C1942      C1943   1.522       .  S
C1943      F1947   1.385       .  S
C1943      F1948   1.383       .  S
C1943      F1949   1.384       .  S
C1946      F1950   1.384       .  S
C1946      F1951   1.383       .  S
C1946      F1952   1.385       .  S
C1953      C1954   1.403       .  A
C1953      C1958   1.407       .  A
C1953      H1960   1.083       .  S
C1954      C1955   1.417       .  A
C1955      C1956   1.400       .  A
C1955      C1962   1.521       .  S
C1956      C1957   1.401       .  A
C1956      H1961   1.084       .  S
C1957      C1958   1.414       .  A
C1958      C1959   1.514       .  S
C1959      F1963   1.385       .  S
C1959      F1964   1.382       .  S
C1959      F1965   1.382       .  S
C1962      F1966   1.382       .  S
C1962      F1967   1.384       .  S
C1962      F1968   1.385       .  S
C1969      C1970   1.399       .  A
C1969      C1974   1.405       .  A
C1969      H1976   1.083       .  S
C1970      C1971   1.423       .  A
C1971      C1972   1.407       .  A
C1971      C1978   1.521       .  S
C1972      C1973   1.402       .  A
C1972      H1977   1.083       .  S
C1973      C1974   1.427       .  A
C1974      C1975   1.523       .  S
C1975      F1979   1.385       .  S
C1975      F1980   1.382       .  S
C1975      F1981   1.382       .  S
C1978      F1982   1.383       .  S
C1978      F1983   1.384       .  S
C1978      F1984   1.385       .  S
C1985      C1986   1.406       .  A
C1985      C1990   1.407       .  A
C1985      H1992   1.082       .  S
C1986      C1987   1.428       .  A
C1987      C1988   1.409   1_545  A
C1987      C1994   1.522       .  S
C1988      C1989   1.403       .  A
C1988      H1993   1.082       .  S
C1989      C1990   1.422   1_565  A
C1990      C1991   1.522       .  S
C1991      F1995   1.385       .  S
C1991      F1996   1.384       .  S
C1991      F1997   1.383       .  S
C1994      F1998   1.383       .  S
C1994      F1999   1.383       .  S
C1994      F2000   1.385   1_545  S
C2001      C2002   1.408       .  A
C2001      C2006   1.408       .  A
C2001      H2008   1.082       .  S
C2002      C2003   1.418       .  A
C2003      C2004   1.407       .  A
C2003      C2010   1.519       .  S
C2004      C2005   1.410       .  A
C2004      H2009   1.082       .  S
C2005      C2006   1.421       .  A
C2006      C2007   1.521       .  S
C2007      F2011   1.385       .  S
C2007      F2012   1.383       .  S
C2007      F2013   1.384       .  S
C2010      F2014   1.382       .  S
C2010      F2015   1.380       .  S
C2010      F2016   1.385       .  S
C2017      C2018   1.408       .  A
C2017      C2022   1.402       .  A
C2017      H2024   1.083       .  S
C2018      C2019   1.420       .  A
C2019      C2020   1.407       .  A
C2019      C2026   1.520       .  S
C2020      C2021   1.402       .  A
C2020      H2025   1.083       .  S
C2021      C2022   1.409       .  A
C2022      C2023   1.518       .  S
C2023      F2027   1.384       .  S
C2023      F2028   1.382       .  S
C2023      F2029   1.383       .  S
C2026      F2030   1.383       .  S
C2026      F2031   1.383       .  S
C2026      F2032   1.385       .  S
C2033      C2034   1.401       .  A
C2033      C2038   1.402       .  A
C2033      H2040   1.084       .  S
C2034      C2035   1.414       .  A
C2035      C2036   1.409       .  A
C2035      C2042   1.517       .  S
C2036      C2037   1.405       .  A
C2036      H2041   1.083       .  S
C2037      C2038   1.415       .  A
C2038      C2039   1.516       .  S
C2039      F2043   1.385       .  S
C2039      F2044   1.383       .  S
C2039      F2045   1.382       .  S
C2042      F2046   1.384       .  S
C2042      F2047   1.382       .  S
C2042      F2048   1.384       .  S
C2049      C2050   1.408       .  A
C2049      C2054   1.401       .  A
C2049      H2056   1.082       .  S
C2050      C2051   1.419       .  A
C2051      C2052   1.409       .  A
C2051      C2058   1.519       .  S
C2052      C2053   1.407       .  A
C2052      H2057   1.083       .  S
C2053      C2054   1.414       .  A
C2054      C2055   1.520       .  S
C2055      F2059   1.380       .  S
C2055      F2060   1.385       .  S
C2055      F2061   1.383       .  S
C2058      F2062   1.383       .  S
C2058      F2063   1.383       .  S
C2058      F2064   1.385       .  S
C2065      C2066   1.414       .  A
C2065      C2070   1.413       .  A
C2065      H2072   1.082       .  S
C2066      C2067   1.422       .  A
C2067      C2068   1.409       .  A
C2067      C2074   1.521       .  S
C2068      C2069   1.410       .  A
C2068      H2073   1.082       .  S
C2069      C2070   1.418       .  A
C2070      C2071   1.519       .  S
C2071      F2075   1.385       .  S
C2071      F2076   1.383       .  S
C2071      F2077   1.383       .  S
C2074      F2078   1.383       .  S
C2074      F2079   1.383       .  S
C2074      F2080   1.385       .  S
C2081      C2082   1.403       .  A
C2081      C2086   1.409       .  A
C2081      H2088   1.083       .  S
C2082      C2083   1.412       .  A
C2083      C2084   1.405       .  A
C2083      C2090   1.518       .  S
C2084      C2085   1.406       .  A
C2084      H2089   1.081       .  S
C2085      C2086   1.418       .  A
C2086      C2087   1.517       .  S
C2087      F2091   1.385       .  S
C2087      F2092   1.381       .  S
C2087      F2093   1.383       .  S
C2090      F2094   1.382       .  S
C2090      F2095   1.383       .  S
C2090      F2096   1.385       .  S
C2097      C2098   1.407   1_455  A
C2097      C2102   1.411       .  A
C2097      H2104   1.083       .  S
C2098      C2099   1.417       .  A
C2099      C2100   1.411   1_655  A
C2099      C2106   1.519       .  S
C2100      C2101   1.413       .  A
C2100      H2105   1.082       .  S
C2101      C2102   1.425       .  A
C2102      C2103   1.521       .  S
C2103      F2107   1.385       .  S
C2103      F2108   1.383       .  S
C2103      F2109   1.383       .  S
C2106      F2110   1.384       .  S
C2106      F2111   1.382       .  S
C2106      F2112   1.385       .  S
C2113      C2114   1.402       .  A
C2113      C2118   1.404       .  A
C2113      H2120   1.084       .  S
C2114      C2115   1.408       .  A
C2115      C2116   1.407       .  A
C2115      C2122   1.517       .  S
C2116      C2117   1.414       .  A
C2116      H2121   1.082       .  S
C2117      C2118   1.423       .  A
C2118      C2119   1.522       .  S
C2119      F2123   1.385       .  S
C2119      F2124   1.383       .  S
C2119      F2125   1.384       .  S
C2122      F2126   1.383       .  S
C2122      F2127   1.383       .  S
C2122      F2128   1.384       .  S
C2129      C2130   1.400       .  A
C2129      C2134   1.409       .  A
C2129      H2136   1.083       .  S
C2130      C2131   1.415       .  A
C2131      C2132   1.407       .  A
C2131      C2138   1.513       .  S
C2132      C2133   1.403       .  A
C2132      H2137   1.083       .  S
C2133      C2134   1.424       .  A
C2134      C2135   1.520       .  S
C2135      F2139   1.385       .  S
C2135      F2140   1.383       .  S
C2135      F2141   1.382       .  S
C2138      F2142   1.381       .  S
C2138      F2143   1.383       .  S
C2138      F2144   1.385       .  S
C2145      C2146   1.405   1_565  A
C2145      C2150   1.408   1_565  A
C2145      H2152   1.082       .  S
C2146      C2147   1.428       .  A
C2147      C2148   1.411       .  A
C2147      C2154   1.522       .  S
C2148      C2149   1.403       .  A
C2148      H2153   1.082       .  S
C2149      C2150   1.423       .  A
C2150      C2151   1.522       .  S
C2151      F2155   1.385   1_545  S
C2151      F2156   1.384       .  S
C2151      F2157   1.383       .  S
C2154      F2158   1.384       .  S
C2154      F2159   1.383       .  S
C2154      F2160   1.385       .  S
C2161      C2162   1.406       .  A
C2161      C2166   1.405       .  A
C2161      H2168   1.083       .  S
C2162      C2163   1.412       .  A
C2163      C2164   1.408       .  A
C2163      C2170   1.518       .  S
C2164      C2165   1.412       .  A
C2164      H2169   1.082       .  S
C2165      C2166   1.417       .  A
C2166      C2167   1.520       .  S
C2167      F2171   1.385       .  S
C2167      F2172   1.383       .  S
C2167      F2173   1.383       .  S
C2170      F2174   1.383       .  S
C2170      F2175   1.383       .  S
C2170      F2176   1.385       .  S
C2177      C2178   1.406       .  A
C2177      C2182   1.405       .  A
C2177      H2184   1.082       .  S
C2178      C2179   1.426       .  A
C2179      C2180   1.411   1_554  A
C2179      C2186   1.520       .  S
C2180      C2181   1.402       .  A
C2180      H2185   1.083       .  S
C2181      C2182   1.421   1_556  A
C2182      C2183   1.521       .  S
C2183      F2187   1.385       .  S
C2183      F2188   1.383       .  S
C2183      F2189   1.381   1_554  S
C2186      F2190   1.384       .  S
C2186      F2191   1.383       .  S
C2186      F2192   1.385   1_554  S
C2193      C2194   1.404       .  A
C2193      C2198   1.407       .  A
C2193      H2200   1.083       .  S
C2194      C2195   1.417       .  A
C2195      C2196   1.403       .  A
C2195      C2202   1.518       .  S
C2196      C2197   1.400       .  A
C2196      H2201   1.079       .  S
C2197      C2198   1.418       .  A
C2198      C2199   1.520       .  S
C2199      F2203   1.385       .  S
C2199      F2204   1.383       .  S
C2199      F2205   1.382       .  S
C2202      F2206   1.380       .  S
C2202      F2207   1.383       .  S
C2202      F2208   1.385       .  S
C2209      C2210   1.413       .  A
C2209      C2214   1.406       .  A
C2209      H2216   1.082       .  S
C2210      C2211   1.421       .  A
C2211      C2212   1.406       .  A
C2211      C2218   1.521       .  S
C2212      C2213   1.405       .  A
C2212      H2217   1.083       .  S
C2213      C2214   1.409       .  A
C2214      C2215   1.518       .  S
C2215      F2219   1.385       .  S
C2215      F2220   1.384       .  S
C2215      F2221   1.382       .  S
C2218      F2222   1.384       .  S
C2218      F2223   1.383       .  S
C2218      F2224   1.385       .  S
C2225      C2226   1.401       .  A
C2225      C2230   1.410       .  A
C2225      H2232   1.083       .  S
C2226      C2227   1.421       .  A
C2227      C2228   1.410       .  A
C2227      C2234   1.520       .  S
C2228      C2229   1.406       .  A
C2228      H2233   1.082       .  S
C2229      C2230   1.428       .  A
C2230      C2231   1.521       .  S
C2231      F2235   1.385       .  S
C2231      F2236   1.384       .  S
C2231      F2237   1.383       .  S
C2234      F2238   1.383       .  S
C2234      F2239   1.383       .  S
C2234      F2240   1.385       .  S
C2241      C2242   1.402       .  A
C2241      C2246   1.407       .  A
C2241      H2248   1.084       .  S
C2242      C2243   1.411       .  A
C2243      C2244   1.404       .  A
C2243      C2250   1.519       .  S
C2244      C2245   1.409       .  A
C2244      H2249   1.083       .  S
C2245      C2246   1.419       .  A
C2246      C2247   1.519       .  S
C2247      F2251   1.385       .  S
C2247      F2252   1.384       .  S
C2247      F2253   1.383       .  S
C2250      F2254   1.383       .  S
C2250      F2255   1.382       .  S
C2250      F2256   1.385       .  S
C2257      C2258   1.399       .  A
C2257      C2262   1.410       .  A
C2257      H2264   1.083       .  S
C2258      C2259   1.419       .  A
C2259      C2260   1.402       .  A
C2259      C2266   1.521       .  S
C2260      C2261   1.403       .  A
C2260      H2265   1.082       .  S
C2261      C2262   1.429       .  A
C2262      C2263   1.520       .  S
C2263      F2267   1.385       .  S
C2263      F2268   1.383       .  S
C2263      F2269   1.381       .  S
C2266      F2270   1.381       .  S
C2266      F2271   1.382       .  S
C2266      F2272   1.385       .  S
C2273      C2274   1.408       .  A
C2273      C2278   1.409       .  A
C2273      H2280   1.082       .  S
C2274      C2275   1.417       .  A
C2275      C2276   1.406       .  A
C2275      C2282   1.521       .  S
C2276      C2277   1.409       .  A
C2276      H2281   1.083       .  S
C2277      C2278   1.416       .  A
C2278      C2279   1.516       .  S
C2279      F2283   1.385       .  S
C2279      F2284   1.381       .  S
C2279      F2285   1.383       .  S
C2282      F2286   1.382       .  S
C2282      F2287   1.382       .  S
C2282      F2288   1.385       .  S
C2289      C2290   1.401       .  A
C2289      C2294   1.409       .  A
C2289      H2296   1.084       .  S
C2290      C2291   1.415       .  A
C2291      C2292   1.402       .  A
C2291      C2298   1.521       .  S
C2292      C2293   1.404       .  A
C2292      H2297   1.083       .  S
C2293      C2294   1.420       .  A
C2294      C2295   1.518       .  S
C2295      F2299   1.385       .  S
C2295      F2300   1.383       .  S
C2295      F2301   1.383       .  S
C2298      F2302   1.384       .  S
C2298      F2303   1.382       .  S
C2298      F2304   1.382       .  S
C2305      C2306   1.402       .  A
C2305      C2310   1.407       .  A
C2305      H2312   1.082   1_545  S
C2306      C2307   1.423       .  A
C2307      C2308   1.412       .  A
C2307      C2314   1.520       .  S
C2308      C2309   1.407       .  A
C2308      H2313   1.082       .  S
C2309      C2310   1.430       .  A
C2310      C2311   1.524       .  S
C2311      F2315   1.385   1_545  S
C2311      F2316   1.384       .  S
C2311      F2317   1.383       .  S
C2314      F2318   1.383       .  S
C2314      F2319   1.383       .  S
C2314      F2320   1.385       .  S
C2321      C2322   1.411       .  A
C2321      C2326   1.409       .  A
C2321      H2328   1.082       .  S
C2322      C2323   1.422       .  A
C2323      C2324   1.412       .  A
C2323      C2330   1.520       .  S
C2324      C2325   1.410       .  A
C2324      H2329   1.082       .  S
C2325      C2326   1.420       .  A
C2326      C2327   1.521       .  S
C2327      F2331   1.385       .  S
C2327      F2332   1.384       .  S
C2327      F2333   1.383       .  S
C2330      F2334   1.383       .  S
C2330      F2335   1.383       .  S
C2330      F2336   1.385       .  S
C2337      C2338   1.405       .  A
C2337      C2342   1.401       .  A
C2337      H2344   1.083       .  S
C2338      C2339   1.414       .  A
C2339      C2340   1.409       .  A
C2339      C2346   1.518       .  S
C2340      C2341   1.410       .  A
C2340      H2345   1.083       .  S
C2341      C2342   1.419       .  A
C2342      C2343   1.522       .  S
C2343      F2347   1.385       .  S
C2343      F2348   1.383       .  S
C2343      F2349   1.383       .  S
C2346      F2350   1.384       .  S
C2346      F2351   1.383       .  S
C2346      F2352   1.385       .  S
C2353      C2354   1.407       .  A
C2353      C2358   1.408   1_556  A
C2353      H2360   1.082       .  S
C2354      C2355   1.425   1_556  A
C2355      C2356   1.410       .  A
C2355      C2362   1.521       .  S
C2356      C2357   1.405       .  A
C2356      H2361   1.083       .  S
C2357      C2358   1.423       .  A
C2358      C2359   1.522       .  S
C2359      F2363   1.385   1_554  S
C2359      F2364   1.383       .  S
C2359      F2365   1.383       .  S
C2362      F2366   1.384       .  S
C2362      F2367   1.383       .  S
C2362      F2368   1.385       .  S
C2369      C2370   1.408       .  A
C2369      C2374   1.409       .  A
C2369      H2376   1.083       .  S
C2370      C2371   1.415       .  A
C2371      C2372   1.408       .  A
C2371      C2378   1.520       .  S
C2372      C2373   1.413       .  A
C2372      H2377   1.082       .  S
C2373      C2374   1.421       .  A
C2374      C2375   1.520       .  S
C2375      F2379   1.385       .  S
C2375      F2380   1.384       .  S
C2375      F2381   1.383       .  S
C2378      F2382   1.384       .  S
C2378      F2383   1.382       .  S
C2378      F2384   1.385       .  S
C2385      C2386   1.411       .  A
C2385      C2390   1.412       .  A
C2385      H2392   1.083       .  S
C2386      C2387   1.422       .  A
C2387      C2388   1.403       .  A
C2387      C2394   1.523       .  S
C2388      C2389   1.404       .  A
C2388      H2393   1.083       .  S
C2389      C2390   1.413       .  A
C2390      C2391   1.516       .  S
C2391      F2395   1.384       .  S
C2391      F2396   1.384       .  S
C2391      F2397   1.383       .  S
C2394      F2398   1.382       .  S
C2394      F2399   1.383       .  S
C2394      F2400   1.385       .  S
C2401      C2402   1.409       .  A
C2401      C2406   1.404       .  A
C2401      H2408   1.083       .  S
C2402      C2403   1.419       .  A
C2403      C2404   1.405       .  A
C2403      C2410   1.519       .  S
C2404      C2405   1.400       .  A
C2404      H2409   1.084       .  S
C2405      C2406   1.411       .  A
C2406      C2407   1.519       .  S
C2407      F2411   1.385       .  S
C2407      F2412   1.383       .  S
C2407      F2413   1.382       .  S
C2410      F2414   1.383       .  S
C2410      F2415   1.383       .  S
C2410      F2416   1.385       .  S
C2417      C2418   1.405       .  A
C2417      C2422   1.406   1_655  A
C2417      H2424   1.082       .  S
C2418      C2419   1.428   1_655  A
C2419      C2420   1.413       .  A
C2419      C2426   1.521       .  S
C2420      C2421   1.403       .  A
C2420      H2425   1.083       .  S
C2421      C2422   1.422       .  A
C2422      C2423   1.522       .  S
C2423      F2427   1.385   1_455  S
C2423      F2428   1.383       .  S
C2423      F2429   1.383       .  S
C2426      F2430   1.384   1_455  S
C2426      F2431   1.383   1_455  S
C2426      F2432   1.385       .  S
C2433      C2434   1.402       .  A
C2433      C2438   1.411       .  A
C2433      H2440   1.083       .  S
C2434      C2435   1.418       .  A
C2435      C2436   1.408       .  A
C2435      C2442   1.520       .  S
C2436      C2437   1.405       .  A
C2436      H2441   1.083       .  S
C2437      C2438   1.422       .  A
C2438      C2439   1.519       .  S
C2439      F2443   1.385       .  S
C2439      F2444   1.382       .  S
C2439      F2445   1.382       .  S
C2442      F2446   1.382       .  S
C2442      F2447   1.382       .  S
C2442      F2448   1.385       .  S
C2449      C2450   1.408       .  A
C2449      C2454   1.407       .  A
C2449      H2456   1.082       .  S
C2450      C2451   1.426       .  A
C2451      C2452   1.413       .  A
C2451      C2458   1.519       .  S
C2452      C2453   1.403       .  A
C2452      H2457   1.083       .  S
C2453      C2454   1.420       .  A
C2454      C2455   1.522       .  S
C2455      F2459   1.385       .  S
C2455      F2460   1.383       .  S
C2455      F2461   1.383       .  S
C2458      F2462   1.383       .  S
C2458      F2463   1.383       .  S
C2458      F2464   1.385       .  S
C2465      C2466   1.406       .  A
C2465      C2470   1.402       .  A
C2465      H2472   1.083       .  S
C2466      C2467   1.412       .  A
C2467      C2468   1.406       .  A
C2467      C2474   1.517       .  S
C2468      C2469   1.409       .  A
C2468      H2473   1.083       .  S
C2469      C2470   1.417       .  A
C2470      C2471   1.521       .  S
C2471      F2475   1.385       .  S
C2471      F2476   1.383       .  S
C2471      F2477   1.383       .  S
C2474      F2478   1.383       .  S
C2474      F2479   1.383       .  S
C2474      F2480   1.385       .  S
C2481      C2482   1.413       .  A
C2481      C2486   1.408       .  A
C2481      H2488   1.082       .  S
C2482      C2483   1.426       .  A
C2483      C2484   1.406       .  A
C2483      C2490   1.521       .  S
C2484      C2485   1.397       .  A
C2484      H2489   1.082       .  S
C2485      C2486   1.407       .  A
C2486      C2487   1.517       .  S
C2487      F2491   1.384       .  S
C2487      F2492   1.384       .  S
C2487      F2493   1.383       .  S
C2490      F2494   1.384       .  S
C2490      F2495   1.383       .  S
C2490      F2496   1.385       .  S
C2497      C2498   1.404       .  A
C2497      C2502   1.404       .  A
C2497      H2504   1.083       .  S
C2498      C2499   1.422       .  A
C2499      C2500   1.403       .  A
C2499      C2506   1.519   1_565  S
C2500      C2501   1.396       .  A
C2500      H2505   1.084       .  S
C2501      C2502   1.415       .  A
C2502      C2503   1.520       .  S
C2503      F2507   1.385       .  S
C2503      F2508   1.382       .  S
C2503      F2509   1.382       .  S
C2506      F2510   1.383       .  S
C2506      F2511   1.384       .  S
C2506      F2512   1.385       .  S
C2513      C2514   1.413       .  A
C2513      C2518   1.408       .  A
C2513      H2520   1.083       .  S
C2514      C2515   1.420       .  A
C2515      C2516   1.404       .  A
C2515      C2522   1.520       .  S
C2516      C2517   1.403       .  A
C2516      H2521   1.084       .  S
C2517      C2518   1.410       .  A
C2518      C2519   1.518       .  S
C2519      F2523   1.385       .  S
C2519      F2524   1.382       .  S
C2519      F2525   1.384       .  S
C2522      F2526   1.383       .  S
C2522      F2527   1.383       .  S
C2522      F2528   1.385       .  S
C2529      C2530   1.411       .  A
C2529      C2534   1.404       .  A
C2529      H2536   1.083   1_565  S
C2530      C2531   1.420       .  A
C2531      C2532   1.411       .  A
C2531      C2538   1.518       .  S
C2532      C2533   1.404       .  A
C2532      H2537   1.084       .  S
C2533      C2534   1.409       .  A
C2534      C2535   1.519   1_565  S
C2535      F2539   1.384       .  S
C2535      F2540   1.384   1_545  S
C2535      F2541   1.382       .  S
C2538      F2542   1.384       .  S
C2538      F2543   1.383       .  S
C2538      F2544   1.385       .  S
C2545      C2546   1.404       .  A
C2545      C2550   1.407       .  A
C2545      H2552   1.083       .  S
C2546      C2547   1.412       .  A
C2547      C2548   1.403       .  A
C2547      C2554   1.518       .  S
C2548      C2549   1.410       .  A
C2548      H2553   1.082       .  S
C2549      C2550   1.423       .  A
C2550      C2551   1.520       .  S
C2551      F2555   1.385       .  S
C2551      F2556   1.383       .  S
C2551      F2557   1.383       .  S
C2554      F2558   1.383       .  S
C2554      F2559   1.382       .  S
C2554      F2560   1.385       .  S
C2561      C2562   1.399       .  A
C2561      C2566   1.405       .  A
C2561      H2568   1.083       .  S
C2562      C2563   1.419       .  A
C2563      C2564   1.408       .  A
C2563      C2570   1.520       .  S
C2564      C2565   1.405       .  A
C2564      H2569   1.083       .  S
C2565      C2566   1.428       .  A
C2566      C2567   1.523       .  S
C2567      F2571   1.385       .  S
C2567      F2572   1.384       .  S
C2567      F2573   1.383       .  S
C2570      F2574   1.384       .  S
C2570      F2575   1.383       .  S
C2570      F2576   1.385       .  S
C2577      C2578   1.407       .  A
C2577      C2582   1.405       .  A
C2577      H2584   1.083       .  S
C2578      C2579   1.413       .  A
C2579      C2580   1.403       .  A
C2579      C2586   1.521       .  S
C2580      C2581   1.413       .  A
C2580      H2585   1.082       .  S
C2581      C2582   1.420       .  A
C2582      C2583   1.521       .  S
C2583      F2587   1.385       .  S
C2583      F2588   1.383       .  S
C2583      F2589   1.383       .  S
C2586      F2590   1.383       .  S
C2586      F2591   1.384       .  S
C2586      F2592   1.385       .  S
C2593      C2594   1.404       .  A
C2593      C2598   1.401       .  A
C2593      H2600   1.083       .  S
C2594      C2595   1.411       .  A
C2595      C2596   1.407       .  A
C2595      C2602   1.518       .  S
C2596      C2597   1.411       .  A
C2596      H2601   1.083       .  S
C2597      C2598   1.419       .  A
C2598      C2599   1.522       .  S
C2599      F2603   1.385       .  S
C2599      F2604   1.383       .  S
C2599      F2605   1.383       .  S
C2602      F2606   1.384       .  S
C2602      F2607   1.382       .  S
C2602      F2608   1.385       .  S
C2609      C2610   1.409       .  A
C2609      C2614   1.403       .  A
C2609      H2616   1.082       .  S
C2610      C2611   1.418       .  A
C2611      C2612   1.405       .  A
C2611      C2618   1.520       .  S
C2612      C2613   1.409       .  A
C2612      H2617   1.082       .  S
C2613      C2614   1.418       .  A
C2614      C2615   1.522       .  S
C2615      F2619   1.385       .  S
C2615      F2620   1.384       .  S
C2615      F2621   1.383       .  S
C2618      F2622   1.383       .  S
C2618      F2623   1.383       .  S
C2618      F2624   1.385       .  S
C2625      C2626   1.400       .  A
C2625      C2630   1.406       .  A
C2625      H2632   1.083       .  S
C2626      C2627   1.419       .  A
C2627      C2628   1.408       .  A
C2627      C2634   1.517       .  S
C2628      C2629   1.402       .  A
C2628      H2633   1.083       .  S
C2629      C2630   1.421       .  A
C2630      C2631   1.520       .  S
C2631      F2635   1.385       .  S
C2631      F2636   1.382       .  S
C2631      F2637   1.382       .  S
C2634      F2638   1.380   1_565  S
C2634      F2639   1.382       .  S
C2634      F2640   1.385       .  S
C2641      C2642   1.403       .  A
C2641      C2646   1.406       .  A
C2641      H2648   1.084       .  S
C2642      C2643   1.409       .  A
C2643      C2644   1.404       .  A
C2643      C2650   1.518       .  S
C2644      C2645   1.410       .  A
C2644      H2649   1.083       .  S
C2645      C2646   1.419       .  A
C2646      C2647   1.520       .  S
C2647      F2651   1.385       .  S
C2647      F2652   1.383       .  S
C2647      F2653   1.383       .  S
C2650      F2654   1.382       .  S
C2650      F2655   1.384       .  S
C2650      F2656   1.385       .  S
C2657      C2658   1.401       .  A
C2657      C2662   1.406       .  A
C2657      H2664   1.084       .  S
C2658      C2659   1.408       .  A
C2659      C2660   1.409       .  A
C2659      C2666   1.518       .  S
C2660      C2661   1.416       .  A
C2660      H2665   1.082       .  S
C2661      C2662   1.425       .  A
C2662      C2663   1.521       .  S
C2663      F2667   1.385       .  S
C2663      F2668   1.383       .  S
C2663      F2669   1.383       .  S
C2666      F2670   1.384       .  S
C2666      F2671   1.382       .  S
C2666      F2672   1.384       .  S
C2673      C2674   1.403       .  A
C2673      C2678   1.408       .  A
C2673      H2680   1.084       .  S
C2674      C2675   1.414       .  A
C2675      C2676   1.407       .  A
C2675      C2682   1.518       .  S
C2676      C2677   1.406       .  A
C2676      H2681   1.083       .  S
C2677      C2678   1.419       .  A
C2678      C2679   1.519       .  S
C2679      F2683   1.385       .  S
C2679      F2684   1.384       .  S
C2679      F2685   1.382       .  S
C2682      F2686   1.384       .  S
C2682      F2687   1.382   1_455  S
C2682      F2688   1.385   1_455  S
C2689      C2690   1.402       .  A
C2689      C2694   1.405       .  A
C2689      H2696   1.084       .  S
C2690      C2691   1.410       .  A
C2691      C2692   1.405       .  A
C2691      C2698   1.519       .  S
C2692      C2693   1.410       .  A
C2692      H2697   1.083       .  S
C2693      C2694   1.419       .  A
C2694      C2695   1.519       .  S
C2695      F2699   1.385       .  S
C2695      F2700   1.383       .  S
C2695      F2701   1.383       .  S
C2698      F2702   1.384       .  S
C2698      F2703   1.382       .  S
C2698      F2704   1.385       .  S
C2705      C2706   1.400   1_455  A
C2705      C2710   1.410       .  A
C2705      H2712   1.083       .  S
C2706      C2707   1.420   1_545  A
C2707      C2708   1.408   1_565  A
C2707      C2714   1.521       .  S
C2708      C2709   1.407       .  A
C2708      H2713   1.082   1_545  S
C2709      C2710   1.429   1_655  A
C2710      C2711   1.521       .  S
C2711      F2715   1.385       .  S
C2711      F2716   1.384       .  S
C2711      F2717   1.383       .  S
C2714      F2718   1.382       .  S
C2714      F2719   1.383       .  S
C2714      F2720   1.385       .  S
C2721      C2722   1.412       .  A
C2721      C2726   1.406       .  A
C2721      H2728   1.082       .  S
C2722      C2723   1.421       .  A
C2723      C2724   1.406       .  A
C2723      C2730   1.523       .  S
C2724      C2725   1.405       .  A
C2724      H2729   1.083       .  S
C2725      C2726   1.410       .  A
C2726      C2727   1.519       .  S
C2727      F2731   1.385   1_556  S
C2727      F2732   1.382       .  S
C2727      F2733   1.384       .  S
C2730      F2734   1.385       .  S
C2730      F2735   1.382       .  S
C2730      F2736   1.383       .  S
C2737      C2738   1.399       .  A
C2737      C2742   1.403       .  A
C2737      H2744   1.084       .  S
C2738      C2739   1.415       .  A
C2739      C2740   1.407       .  A
C2739      C2746   1.516       .  S
C2740      C2741   1.403       .  A
C2740      H2745   1.082       .  S
C2741      C2742   1.420       .  A
C2742      C2743   1.519       .  S
C2743      F2747   1.385   1_545  S
C2743      F2748   1.384       .  S
C2743      F2749   1.383       .  S
C2746      F2750   1.379       .  S
C2746      F2751   1.382       .  S
C2746      F2752   1.384       .  S
C2753      C2754   1.403       .  A
C2753      C2758   1.408       .  A
C2753      H2760   1.083       .  S
C2754      C2755   1.414       .  A
C2755      C2756   1.398       .  A
C2755      C2762   1.514       .  S
C2756      C2757   1.396       .  A
C2756      H2761   1.084       .  S
C2757      C2758   1.415       .  A
C2758      C2759   1.517       .  S
C2759      F2763   1.385       .  S
C2759      F2764   1.383       .  S
C2759      F2765   1.383       .  S
C2762      F2766   1.383       .  S
C2762      F2767   1.380       .  S
C2762      F2768   1.385       .  S
C2769      C2770   1.401       .  A
C2769      C2774   1.409       .  A
C2769      H2776   1.083       .  S
C2770      C2771   1.409       .  A
C2771      C2772   1.406       .  A
C2771      C2778   1.518       .  S
C2772      C2773   1.411       .  A
C2772      H2777   1.082   1_556  S
C2773      C2774   1.422       .  A
C2774      C2775   1.519       .  S
C2775      F2779   1.383       .  S
C2775      F2780   1.385       .  S
C2775      F2781   1.383       .  S
C2778      F2782   1.383   1_556  S
C2778      F2783   1.383       .  S
C2778      F2784   1.385   1_556  S
C2785      C2786   1.400       .  A
C2785      C2790   1.397       .  A
C2785      H2792   1.084       .  S
C2786      C2787   1.420       .  A
C2787      C2788   1.407       .  A
C2787      C2794   1.518       .  S
C2788      C2789   1.400       .  A
C2788      H2793   1.083       .  S
C2789      C2790   1.413       .  A
C2790      C2791   1.519       .  S
C2791      F2795   1.385       .  S
C2791      F2796   1.382       .  S
C2791      F2797   1.382       .  S
C2794      F2798   1.383       .  S
C2794      F2799   1.383       .  S
C2794      F2800   1.385       .  S
C2801      C2802   1.404       .  A
C2801      C2806   1.412       .  A
C2801      H2808   1.083       .  S
C2802      C2803   1.423   1_545  A
C2803      C2804   1.409   1_565  A
C2803      C2810   1.521       .  S
C2804      C2805   1.406       .  A
C2804      H2809   1.082   1_545  S
C2805      C2806   1.428       .  A
C2806      C2807   1.522       .  S
C2807      F2811   1.385       .  S
C2807      F2812   1.384       .  S
C2807      F2813   1.383   1_455  S
C2810      F2814   1.383       .  S
C2810      F2815   1.383       .  S
C2810      F2816   1.385       .  S
C2817      C2818   1.397       .  A
C2817      C2822   1.412       .  A
C2817      H2824   1.083       .  S
C2818      C2819   1.413       .  A
C2819      C2820   1.400       .  A
C2819      C2826   1.517       .  S
C2820      C2821   1.406       .  A
C2820      H2825   1.082       .  S
C2821      C2822   1.430       .  A
C2822      C2823   1.521       .  S
C2823      F2827   1.385       .  S
C2823      F2828   1.382       .  S
C2823      F2829   1.383       .  S
C2826      F2830   1.381       .  S
C2826      F2831   1.381       .  S
C2826      F2832   1.385       .  S
C2833      C2834   1.403       .  A
C2833      C2838   1.402       .  A
C2833      H2840   1.084       .  S
C2834      C2835   1.409       .  A
C2835      C2836   1.406       .  A
C2835      C2842   1.517       .  S
C2836      C2837   1.411       .  A
C2836      H2841   1.083       .  S
C2837      C2838   1.421       .  A
C2838      C2839   1.522       .  S
C2839      F2843   1.385       .  S
C2839      F2844   1.383       .  S
C2839      F2845   1.382       .  S
C2842      F2846   1.384       .  S
C2842      F2847   1.382       .  S
C2842      F2848   1.384       .  S
C2849      C2850   1.400       .  A
C2849      C2854   1.403       .  A
C2849      H2856   1.083   1_565  S
C2850      C2851   1.418       .  A
C2851      C2852   1.406       .  A
C2851      C2858   1.515       .  S
C2852      C2853   1.400       .  A
C2852      H2857   1.083       .  S
C2853      C2854   1.420       .  A
C2854      C2855   1.521   1_565  S
C2855      F2859   1.382       .  S
C2855      F2860   1.381       .  S
C2855      F2861   1.385       .  S
C2858      F2862   1.383       .  S
C2858      F2863   1.381       .  S
C2858      F2864   1.385       .  S
C2865      C2866   1.398       .  A
C2865      C2870   1.405       .  A
C2865      H2872   1.083       .  S
C2866      C2867   1.422       .  A
C2867      C2868   1.406       .  A
C2867      C2874   1.523       .  S
C2868      C2869   1.406       .  A
C2868      H2873   1.082       .  S
C2869      C2870   1.428       .  A
C2870      C2871   1.522       .  S
C2871      F2875   1.385       .  S
C2871      F2876   1.382       .  S
C2871      F2877   1.383       .  S
C2874      F2878   1.382       .  S
C2874      F2879   1.383       .  S
C2874      F2880   1.385       .  S
C2881      C2882   1.402       .  A
C2881      C2886   1.412       .  A
C2881      H2888   1.083       .  S
C2882      C2883   1.414   1_655  A
C2883      C2884   1.405   1_455  A
C2883      C2890   1.516       .  S
C2884      C2885   1.405       .  A
C2884      H2889   1.083   1_655  S
C2885      C2886   1.422       .  A
C2886      C2887   1.518       .  S
C2887      F2891   1.385       .  S
C2887      F2892   1.383       .  S
C2887      F2893   1.383       .  S
C2890      F2894   1.383       .  S
C2890      F2895   1.382       .  S
C2890      F2896   1.385       .  S
C2897      C2898   1.396       .  A
C2897      C2902   1.401       .  A
C2897      H2904   1.083       .  S
C2898      C2899   1.420       .  A
C2899      C2900   1.409       .  A
C2899      C2906   1.519       .  S
C2900      C2901   1.403       .  A
C2900      H2905   1.083       .  S
C2901      C2902   1.428       .  A
C2902      C2903   1.524       .  S
C2903      F2907   1.385       .  S
C2903      F2908   1.382       .  S
C2903      F2909   1.381       .  S
C2906      F2910   1.382       .  S
C2906      F2911   1.383       .  S
C2906      F2912   1.385       .  S
C2913      C2914   1.411       .  A
C2913      C2918   1.407       .  A
C2913      H2920   1.083       .  S
C2914      C2915   1.423       .  A
C2915      C2916   1.403       .  A
C2915      C2922   1.522       .  S
C2916      C2917   1.399       .  A
C2916      H2921   1.084       .  S
C2917      C2918   1.411       .  A
C2918      C2919   1.519       .  S
C2919      F2923   1.384       .  S
C2919      F2924   1.384       .  S
C2919      F2925   1.382       .  S
C2922      F2926   1.383       .  S
C2922      F2927   1.383       .  S
C2922      F2928   1.385       .  S
C2929      C2930   1.410   1_556  A
C2929      C2934   1.411       .  A
C2929      H2936   1.082       .  S
C2930      C2931   1.419       .  A
C2931      C2932   1.404       .  A
C2931      C2938   1.522       .  S
C2932      C2933   1.410       .  A
C2932      H2937   1.082       .  S
C2933      C2934   1.420   1_554  A
C2934      C2935   1.519       .  S
C2935      F2939   1.385       .  S
C2935      F2940   1.383   1_545  S
C2935      F2941   1.383       .  S
C2938      F2942   1.383   1_545  S
C2938      F2943   1.382       .  S
C2938      F2944   1.385       .  S
C2945      C2946   1.402       .  A
C2945      C2950   1.399       .  A
C2945      H2952   1.082       .  S
C2946      C2947   1.428       .  A
C2947      C2948   1.405       .  A
C2947      C2954   1.522       .  S
C2948      C2949   1.399       .  A
C2948      H2953   1.083       .  S
C2949      C2950   1.423       .  A
C2950      C2951   1.524       .  S
C2951      F2955   1.385       .  S
C2951      F2956   1.383       .  S
C2951      F2957   1.383       .  S
C2954      F2958   1.384       .  S
C2954      F2959   1.383       .  S
C2954      F2960   1.385       .  S
C2961      C2962   1.403   1_554  A
C2961      C2966   1.405       .  A
C2961      H2968   1.083       .  S
C2962      C2963   1.415       .  A
C2963      C2964   1.407       .  A
C2963      C2970   1.518       .  S
C2964      C2965   1.405       .  A
C2964      H2969   1.083       .  S
C2965      C2966   1.416   1_556  A
C2966      C2967   1.518       .  S
C2967      F2971   1.385       .  S
C2967      F2972   1.383       .  S
C2967      F2973   1.382       .  S
C2970      F2974   1.383       .  S
C2970      F2975   1.382       .  S
C2970      F2976   1.385       .  S
C2977      C2978   1.395       .  A
C2977      C2982   1.401       .  A
C2977      H2984   1.083       .  S
C2978      C2979   1.416       .  A
C2979      C2980   1.399       .  A
C2979      C2986   1.520       .  S
C2980      C2981   1.399       .  A
C2980      H2985   1.083       .  S
C2981      C2982   1.422       .  A
C2982      C2983   1.520       .  S
C2983      F2987   1.385       .  S
C2983      F2988   1.383       .  S
C2983      F2989   1.384       .  S
C2986      F2990   1.382       .  S
C2986      F2991   1.382       .  S
C2986      F2992   1.385       .  S
C2993      C2994   1.407       .  A
C2993      C2998   1.402       .  A
C2993      H3000   1.083       .  S
C2994      C2995   1.419       .  A
C2995      C2996   1.407       .  A
C2995      C3002   1.519       .  S
C2996      C2997   1.402       .  A
C2996      H3001   1.084       .  S
C2997      C2998   1.409       .  A
C2998      C2999   1.518       .  S
C2999      F3003   1.384       .  S
C2999      F3004   1.382       .  S
C2999      F3005   1.383       .  S
C3002      F3006   1.382       .  S
C3002      F3007   1.384       .  S
C3002      F3008   1.385       .  S
C3009      C3010   1.400       .  A
C3009      C3014   1.400       .  A
C3009      H3016   1.083       .  S
C3010      C3011   1.421       .  A
C3011      C3012   1.408       .  A
C3011      C3018   1.516   1_565  S
C3012      C3013   1.399       .  A
C3012      H3017   1.083       .  S
C3013      C3014   1.415       .  A
C3014      C3015   1.515       .  S
C3015      F3019   1.385       .  S
C3015      F3020   1.382       .  S
C3015      F3021   1.383       .  S
C3018      F3022   1.382       .  S
C3018      F3023   1.383       .  S
C3018      F3024   1.385       .  S
C3025      C3026   1.406       .  A
C3025      C3030   1.403   1_565  A
C3025      H3032   1.083   1_565  S
C3026      C3027   1.415       .  A
C3027      C3028   1.408       .  A
C3027      C3034   1.518       .  S
C3028      C3029   1.408       .  A
C3028      H3033   1.083       .  S
C3029      C3030   1.418   1_565  A
C3030      C3031   1.522       .  S
C3031      F3035   1.385       .  S
C3031      F3036   1.383       .  S
C3031      F3037   1.383   1_545  S
C3034      F3038   1.384       .  S
C3034      F3039   1.382       .  S
C3034      F3040   1.385       .  S
C3041      C3042   1.405       .  A
C3041      C3046   1.406       .  A
C3041      H3048   1.083       .  S
C3042      C3043   1.417       .  A
C3043      C3044   1.398       .  A
C3043      C3050   1.518       .  S
C3044      C3045   1.396       .  A
C3044      H3049   1.084       .  S
C3045      C3046   1.410       .  A
C3046      C3047   1.516       .  S
C3047      F3051   1.384       .  S
C3047      F3052   1.383       .  S
C3047      F3053   1.383       .  S
C3050      F3054   1.379       .  S
C3050      F3055   1.382       .  S
C3050      F3056   1.385       .  S
C3057      C3058   1.405       .  A
C3057      C3062   1.407   1_554  A
C3057      H3064   1.082   1_554  S
C3058      C3059   1.428       .  A
C3059      C3060   1.410       .  A
C3059      C3066   1.522       .  S
C3060      C3061   1.403   1_554  A
C3060      H3065   1.083       .  S
C3061      C3062   1.424       .  A
C3062      C3063   1.523       .  S
C3063      F3067   1.385       .  S
C3063      F3068   1.383       .  S
C3063      F3069   1.383       .  S
C3066      F3070   1.383       .  S
C3066      F3071   1.384   1_545  S
C3066      F3072   1.385       .  S
C3073      C3074   1.406       .  A
C3073      C3078   1.409       .  A
C3073      H3080   1.083       .  S
C3074      C3075   1.421       .  A
C3075      C3076   1.403       .  A
C3075      C3082   1.521       .  S
C3076      C3077   1.399       .  A
C3076      H3081   1.084       .  S
C3077      C3078   1.415       .  A
C3078      C3079   1.517       .  S
C3079      F3083   1.385       .  S
C3079      F3084   1.382       .  S
C3079      F3085   1.383       .  S
C3082      F3086   1.383       .  S
C3082      F3087   1.382       .  S
C3082      F3088   1.385       .  S
C3089      C3090   1.399       .  A
C3089      C3094   1.406       .  A
C3089      H3096   1.083       .  S
C3090      C3091   1.418       .  A
C3091      C3092   1.404       .  A
C3091      C3098   1.521       .  S
C3092      C3093   1.403       .  A
C3092      H3097   1.083       .  S
C3093      C3094   1.423       .  A
C3094      C3095   1.520       .  S
C3095      F3099   1.385       .  S
C3095      F3100   1.382       .  S
C3095      F3101   1.384       .  S
C3098      F3102   1.382       .  S
C3098      F3103   1.382       .  S
C3098      F3104   1.385       .  S
C3105      C3106   1.402       .  A
C3105      C3110   1.409       .  A
C3105      H3112   1.084       .  S
C3106      C3107   1.409       .  A
C3107      C3108   1.406       .  A
C3107      C3114   1.518       .  S
C3108      C3109   1.411       .  A
C3108      H3113   1.083       .  S
C3109      C3110   1.420       .  A
C3110      C3111   1.518       .  S
C3111      F3115   1.385       .  S
C3111      F3116   1.383       .  S
C3111      F3117   1.383       .  S
C3114      F3118   1.383       .  S
C3114      F3119   1.382       .  S
C3114      F3120   1.385       .  S
C3121      C3122   1.411       .  A
C3121      C3126   1.408       .  A
C3121      H3128   1.083       .  S
C3122      C3123   1.421       .  A
C3123      C3124   1.402       .  A
C3123      C3130   1.522       .  S
C3124      C3125   1.403       .  A
C3124      H3129   1.083       .  S
C3125      C3126   1.411       .  A
C3126      C3127   1.519       .  S
C3127      F3131   1.384       .  S
C3127      F3132   1.384       .  S
C3127      F3133   1.382       .  S
C3130      F3134   1.383       .  S
C3130      F3135   1.383       .  S
C3130      F3136   1.385       .  S
C3137      C3138   1.403       .  A
C3137      C3142   1.404       .  A
C3137      H3144   1.082       .  S
C3138      C3139   1.410       .  A
C3139      C3140   1.406       .  A
C3139      C3146   1.518       .  S
C3140      C3141   1.411       .  A
C3140      H3145   1.083       .  S
C3141      C3142   1.419       .  A
C3142      C3143   1.521       .  S
C3143      F3147   1.385       .  S
C3143      F3148   1.383       .  S
C3143      F3149   1.384       .  S
C3146      F3150   1.384       .  S
C3146      F3151   1.382       .  S
C3146      F3152   1.385       .  S
C3153      C3154   1.414       .  A
C3153      C3158   1.413       .  A
C3153      H3160   1.082       .  S
C3154      C3155   1.425       .  A
C3155      C3156   1.412       .  A
C3155      C3162   1.521       .  S
C3156      C3157   1.405       .  A
C3156      H3161   1.082       .  S
C3157      C3158   1.414       .  A
C3158      C3159   1.518       .  S
C3159      F3163   1.385   1_545  S
C3159      F3164   1.383       .  S
C3159      F3165   1.383   1_545  S
C3162      F3166   1.384       .  S
C3162      F3167   1.383       .  S
C3162      F3168   1.385       .  S
C3169      C3170   1.402       .  A
C3169      C3174   1.404       .  A
C3169      H3176   1.084       .  S
C3170      C3171   1.409       .  A
C3171      C3172   1.404       .  A
C3171      C3178   1.518       .  S
C3172      C3173   1.411       .  A
C3172      H3177   1.083       .  S
C3173      C3174   1.420       .  A
C3174      C3175   1.520       .  S
C3175      F3179   1.385       .  S
C3175      F3180   1.383       .  S
C3175      F3181   1.383       .  S
C3178      F3182   1.382       .  S
C3178      F3183   1.383       .  S
C3178      F3184   1.385       .  S
C3185      C3186   1.407       .  A
C3185      C3190   1.415       .  A
C3185      H3192   1.083       .  S
C3186      C3187   1.413       .  A
C3187      C3188   1.406       .  A
C3187      C3194   1.519       .  S
C3188      C3189   1.412       .  A
C3188      H3193   1.082   1_545  S
C3189      C3190   1.424       .  A
C3190      C3191   1.519       .  S
C3191      F3195   1.385       .  S
C3191      F3196   1.383       .  S
C3191      F3197   1.381       .  S
C3194      F3198   1.384       .  S
C3194      F3199   1.382   1_545  S
C3194      F3200   1.385   1_545  S
C3201      C3202   1.404       .  A
C3201      C3206   1.405       .  A
C3201      H3208   1.083       .  S
C3202      C3203   1.423       .  A
C3203      C3204   1.415       .  A
C3203      C3210   1.518       .  S
C3204      C3205   1.405       .  A
C3204      H3209   1.083       .  S
C3205      C3206   1.419       .  A
C3206      C3207   1.520       .  S
C3207      F3211   1.385   1_545  S
C3207      F3212   1.382       .  S
C3207      F3213   1.381       .  S
C3210      F3214   1.383       .  S
C3210      F3215   1.383       .  S
C3210      F3216   1.385       .  S
C3217      C3218   1.403       .  A
C3217      C3222   1.404       .  A
C3217      H3224   1.083       .  S
C3218      C3219   1.412       .  A
C3219      C3220   1.410       .  A
C3219      C3226   1.519       .  S
C3220      C3221   1.413       .  A
C3220      H3225   1.082       .  S
C3221      C3222   1.422       .  A
C3222      C3223   1.522       .  S
C3223      F3227   1.385       .  S
C3223      F3228   1.383       .  S
C3223      F3229   1.384       .  S
C3226      F3230   1.382       .  S
C3226      F3231   1.384       .  S
C3226      F3232   1.385       .  S
C3233      C3234   1.403       .  A
C3233      C3238   1.414       .  A
C3233      H3240   1.083       .  S
C3234      C3235   1.425       .  A
C3235      C3236   1.407       .  A
C3235      C3242   1.524   1_545  S
C3236      C3237   1.405       .  A
C3236      H3241   1.082       .  S
C3237      C3238   1.429       .  A
C3238      C3239   1.521       .  S
C3239      F3243   1.385       .  S
C3239      F3244   1.383   1_545  S
C3239      F3245   1.384       .  S
C3242      F3246   1.383       .  S
C3242      F3247   1.383   1_565  S
C3242      F3248   1.385       .  S
C3249      C3250   1.405       .  A
C3249      C3254   1.405       .  A
C3249      H3256   1.083       .  S
C3250      C3251   1.412       .  A
C3251      C3252   1.405       .  A
C3251      C3258   1.520       .  S
C3252      C3253   1.412       .  A
C3252      H3257   1.083       .  S
C3253      C3254   1.420       .  A
C3254      C3255   1.520       .  S
C3255      F3259   1.385       .  S
C3255      F3260   1.383       .  S
C3255      F3261   1.384       .  S
C3258      F3262   1.384       .  S
C3258      F3263   1.382       .  S
C3258      F3264   1.385       .  S
C3265      C3266   1.411       .  A
C3265      C3270   1.406       .  A
C3265      H3272   1.082       .  S
C3266      C3267   1.424       .  A
C3267      C3268   1.407       .  A
C3267      C3274   1.521       .  S
C3268      C3269   1.403       .  A
C3268      H3273   1.083       .  S
C3269      C3270   1.411       .  A
C3270      C3271   1.517       .  S
C3271      F3275   1.382       .  S
C3271      F3276   1.383       .  S
C3271      F3277   1.384       .  S
C3274      F3278   1.383       .  S
C3274      F3279   1.384       .  S
C3274      F3280   1.385       .  S
C3281      C3282   1.407       .  A
C3281      C3286   1.414       .  A
C3281      H3288   1.083       .  S
C3282      C3283   1.419       .  A
C3283      C3284   1.404       .  A
C3283      C3290   1.519       .  S
C3284      C3285   1.402       .  A
C3284      H3289   1.085       .  S
C3285      C3286   1.417       .  A
C3286      C3287   1.516       .  S
C3287      F3291   1.385       .  S
C3287      F3292   1.382       .  S
C3287      F3293   1.382       .  S
C3290      F3294   1.383       .  S
C3290      F3295   1.382       .  S
C3290      F3296   1.384       .  S
C3297      C3298   1.404       .  A
C3297      C3302   1.404       .  A
C3297      H3304   1.083       .  S
C3298      C3299   1.412       .  A
C3299      C3300   1.410       .  A
C3299      C3306   1.518       .  S
C3300      C3301   1.413       .  A
C3300      H3305   1.083       .  S
C3301      C3302   1.420       .  A
C3302      C3303   1.521       .  S
C3303      F3307   1.385       .  S
C3303      F3308   1.383       .  S
C3303      F3309   1.383       .  S
C3306      F3310   1.383       .  S
C3306      F3311   1.383       .  S
C3306      F3312   1.384       .  S
C3313      C3314   1.407       .  A
C3313      C3318   1.408       .  A
C3313      H3320   1.082       .  S
C3314      C3315   1.429       .  A
C3315      C3316   1.408       .  A
C3315      C3322   1.522   1_545  S
C3316      C3317   1.400       .  A
C3316      H3321   1.083       .  S
C3317      C3318   1.423       .  A
C3318      C3319   1.523       .  S
C3319      F3323   1.385       .  S
C3319      F3324   1.383       .  S
C3319      F3325   1.383       .  S
C3322      F3326   1.383       .  S
C3322      F3327   1.383       .  S
C3322      F3328   1.385       .  S
C3329      C3330   1.409       .  A
C3329      C3334   1.405       .  A
C3329      H3336   1.082       .  S
C3330      C3331   1.417       .  A
C3331      C3332   1.413       .  A
C3331      C3338   1.518       .  S
C3332      C3333   1.410       .  A
C3332      H3337   1.083       .  S
C3333      C3334   1.417       .  A
C3334      C3335   1.522   1_565  S
C3335      F3339   1.385       .  S
C3335      F3340   1.383   1_545  S
C3335      F3341   1.383       .  S
C3338      F3342   1.382       .  S
C3338      F3343   1.384       .  S
C3338      F3344   1.385       .  S
C3345      C3346   1.404       .  A
C3345      C3350   1.406       .  A
C3345      H3352   1.083       .  S
C3346      C3347   1.410       .  A
C3347      C3348   1.404       .  A
C3347      C3354   1.519       .  S
C3348      C3349   1.412       .  A
C3348      H3353   1.082       .  S
C3349      C3350   1.420       .  A
C3350      C3351   1.520       .  S
C3351      F3355   1.385       .  S
C3351      F3356   1.384       .  S
C3351      F3357   1.383       .  S
C3354      F3358   1.383       .  S
C3354      F3359   1.383       .  S
C3354      F3360   1.385       .  S
C3361      C3362   1.404       .  A
C3361      C3366   1.400       .  A
C3361      H3368   1.083       .  S
C3362      C3363   1.420       .  A
C3363      C3364   1.409       .  A
C3363      C3370   1.518       .  S
C3364      C3365   1.401       .  A
C3364      H3369   1.084       .  S
C3365      C3366   1.413       .  A
C3366      C3367   1.519       .  S
C3367      F3371   1.385       .  S
C3367      F3372   1.382       .  S
C3367      F3373   1.380       .  S
C3370      F3374   1.385       .  S
C3370      F3375   1.383       .  S
C3370      F3376   1.383       .  S
C3377      C3378   1.412       .  A
C3377      C3382   1.409       .  A
C3377      H3384   1.082       .  S
C3378      C3379   1.425       .  A
C3379      C3380   1.409       .  A
C3379      C3386   1.522       .  S
C3380      C3381   1.404       .  A
C3380      H3385   1.083   1_565  S
C3381      C3382   1.412       .  A
C3382      C3383   1.518       .  S
C3383      F3387   1.384       .  S
C3383      F3388   1.382       .  S
C3383      F3389   1.384       .  S
C3386      F3390   1.383       .  S
C3386      F3391   1.384       .  S
C3386      F3392   1.385       .  S
C3393      C3394   1.407       .  A
C3393      C3398   1.404       .  A
C3393      H3400   1.083       .  S
C3394      C3395   1.409       .  A
C3395      C3396   1.403       .  A
C3395      C3402   1.519       .  S
C3396      C3397   1.415       .  A
C3396      H3401   1.082       .  S
C3397      C3398   1.419       .  A
C3398      C3399   1.521       .  S
C3399      F3403   1.385       .  S
C3399      F3404   1.383       .  S
C3399      F3405   1.383       .  S
C3402      F3406   1.384       .  S
C3402      F3407   1.382       .  S
C3402      F3408   1.385       .  S
C3409      C3410   1.401       .  A
C3409      C3414   1.400       .  A
C3409      H3416   1.084       .  S
C3410      C3411   1.408       .  A
C3411      C3412   1.409       .  A
C3411      C3418   1.516       .  S
C3412      C3413   1.412       .  A
C3412      H3417   1.083       .  S
C3413      C3414   1.421       .  A
C3414      C3415   1.522       .  S
C3415      F3419   1.385       .  S
C3415      F3420   1.383       .  S
C3415      F3421   1.383       .  S
C3418      F3422   1.383       .  S
C3418      F3423   1.384       .  S
C3418      F3424   1.384       .  S
C3425      C3426   1.399       .  A
C3425      C3430   1.410       .  A
C3425      H3432   1.083       .  S
C3426      C3427   1.423       .  A
C3427      C3428   1.401       .  A
C3427      C3434   1.523       .  S
C3428      C3429   1.400       .  A
C3428      H3433   1.083       .  S
C3429      C3430   1.427       .  A
C3430      C3431   1.521       .  S
C3431      F3435   1.385       .  S
C3431      F3436   1.384       .  S
C3431      F3437   1.383       .  S
C3434      F3438   1.381       .  S
C3434      F3439   1.382       .  S
C3434      F3440   1.385       .  S
C3441      C3442   1.411       .  A
C3441      C3446   1.403       .  A
C3441      H3448   1.082       .  S
C3442      C3443   1.423       .  A
C3443      C3444   1.407       .  A
C3443      C3450   1.522       .  S
C3444      C3445   1.404       .  A
C3444      H3449   1.083       .  S
C3445      C3446   1.408       .  A
C3446      C3447   1.518       .  S
C3447      F3451   1.384       .  S
C3447      F3452   1.384       .  S
C3447      F3453   1.383       .  S
C3450      F3454   1.383       .  S
C3450      F3455   1.384       .  S
C3450      F3456   1.385       .  S
C3457      C3458   1.400       .  A
C3457      C3462   1.408       .  A
C3457      H3464   1.083       .  S
C3458      C3459   1.421       .  A
C3459      C3460   1.417       .  A
C3459      C3466   1.518       .  S
C3460      C3461   1.410       .  A
C3460      H3465   1.082       .  S
C3461      C3462   1.430       .  A
C3462      C3463   1.523       .  S
C3463      F3467   1.385       .  S
C3463      F3468   1.382       .  S
C3463      F3469   1.383       .  S
C3466      F3470   1.383       .  S
C3466      F3471   1.383       .  S
C3466      F3472   1.385       .  S
C3473      C3474   1.402       .  A
C3473      C3478   1.408       .  A
C3473      H3480   1.083       .  S
C3474      C3475   1.419       .  A
C3475      C3476   1.408       .  A
C3475      C3482   1.517       .  S
C3476      C3477   1.402       .  A
C3476      H3481   1.083       .  S
C3477      C3478   1.422       .  A
C3478      C3479   1.521       .  S
C3479      F3483   1.385       .  S
C3479      F3484   1.382       .  S
C3479      F3485   1.383       .  S
C3482      F3486   1.377       .  S
C3482      F3487   1.382       .  S
C3482      F3488   1.385       .  S
C3489      C3490   1.400       .  A
C3489      C3494   1.402       .  A
C3489      H3496   1.084       .  S
C3490      C3491   1.408       .  A
C3491      C3492   1.405       .  A
C3491      C3498   1.518       .  S
C3492      C3493   1.412       .  A
C3492      H3497   1.083       .  S
C3493      C3494   1.423       .  A
C3494      C3495   1.522       .  S
C3495      F3499   1.385       .  S
C3495      F3500   1.383       .  S
C3495      F3501   1.383       .  S
C3498      F3502   1.382       .  S
C3498      F3503   1.384       .  S
C3498      F3504   1.385       .  S
C3505      C3506   1.404       .  A
C3505      C3510   1.404       .  A
C3505      H3512   1.082       .  S
C3506      C3507   1.416       .  A
C3507      C3508   1.411       .  A
C3507      C3514   1.518       .  S
C3508      C3509   1.409       .  A
C3508      H3513   1.083       .  S
C3509      C3510   1.421       .  A
C3510      C3511   1.523       .  S
C3511      F3515   1.385       .  S
C3511      F3516   1.383       .  S
C3511      F3517   1.383       .  S
C3514      F3518   1.383       .  S
C3514      F3519   1.382       .  S
C3514      F3520   1.385       .  S
C3521      C3522   1.412       .  A
C3521      C3526   1.403       .  A
C3521      H3528   1.082       .  S
C3522      C3523   1.419       .  A
C3523      C3524   1.407       .  A
C3523      C3530   1.520       .  S
C3524      C3525   1.408       .  A
C3524      H3529   1.082       .  S
C3525      C3526   1.412       .  A
C3526      C3527   1.520       .  S
C3527      F3531   1.385       .  S
C3527      F3532   1.384       .  S
C3527      F3533   1.383       .  S
C3530      F3534   1.384       .  S
C3530      F3535   1.383       .  S
C3530      F3536   1.385       .  S
C3537      C3538   1.403       .  A
C3537      C3542   1.406       .  A
C3537      H3544   1.083       .  S
C3538      C3539   1.410       .  A
C3539      C3540   1.409       .  A
C3539      C3546   1.517       .  S
C3540      C3541   1.412       .  A
C3540      H3545   1.082       .  S
C3541      C3542   1.423       .  A
C3542      C3543   1.522       .  S
C3543      F3547   1.385       .  S
C3543      F3548   1.383       .  S
C3543      F3549   1.383       .  S
C3546      F3550   1.382       .  S
C3546      F3551   1.384       .  S
C3546      F3552   1.384       .  S
C3553      C3554   1.399       .  A
C3553      C3558   1.408       .  A
C3553      H3560   1.083       .  S
C3554      C3555   1.420       .  A
C3555      C3556   1.401       .  A
C3555      C3562   1.520       .  S
C3556      C3557   1.399       .  A
C3556      H3561   1.083       .  S
C3557      C3558   1.425       .  A
C3558      C3559   1.520       .  S
C3559      F3563   1.385       .  S
C3559      F3564   1.384       .  S
C3559      F3565   1.383       .  S
C3562      F3566   1.381       .  S
C3562      F3567   1.380       .  S
C3562      F3568   1.385       .  S
C3569      C3570   1.405       .  A
C3569      C3574   1.414       .  A
C3569      H3576   1.082       .  S
C3570      C3571   1.426       .  A
C3571      C3572   1.409       .  A
C3571      C3578   1.523       .  S
C3572      C3573   1.406       .  A
C3572      H3577   1.081       .  S
C3573      C3574   1.428       .  A
C3574      C3575   1.521       .  S
C3575      F3579   1.385       .  S
C3575      F3580   1.383       .  S
C3575      F3581   1.384       .  S
C3578      F3582   1.383       .  S
C3578      F3583   1.383       .  S
C3578      F3584   1.385       .  S
C3585      C3586   1.401       .  A
C3585      C3590   1.407       .  A
C3585      H3592   1.083       .  S
C3586      C3587   1.418       .  A
C3587      C3588   1.411       .  A
C3587      C3594   1.517       .  S
C3588      C3589   1.404       .  A
C3588      H3593   1.083       .  S
C3589      C3590   1.422       .  A
C3590      C3591   1.521       .  S
C3591      F3595   1.385       .  S
C3591      F3596   1.383       .  S
C3591      F3597   1.383       .  S
C3594      F3598   1.383       .  S
C3594      F3599   1.381       .  S
C3594      F3600   1.385       .  S
C3601      C3602   1.404       .  A
C3601      C3606   1.403       .  A
C3601      H3608   1.082       .  S
C3602      C3603   1.432       .  A
C3603      C3604   1.412       .  A
C3603      C3610   1.522       .  S
C3604      C3605   1.396       .  A
C3604      H3609   1.083       .  S
C3605      C3606   1.417       .  A
C3606      C3607   1.520       .  S
C3607      F3611   1.385       .  S
C3607      F3612   1.381       .  S
C3607      F3613   1.382       .  S
C3610      F3614   1.385       .  S
C3610      F3615   1.383       .  S
C3610      F3616   1.384       .  S
C3617      C3618   1.404       .  A
C3617      C3622   1.403       .  A
C3617      H3624   1.084       .  S
C3618      C3619   1.409       .  A
C3619      C3620   1.406       .  A
C3619      C3626   1.517       .  S
C3620      C3621   1.411       .  A
C3620      H3625   1.083       .  S
C3621      C3622   1.419       .  A
C3622      C3623   1.521       .  S
C3623      F3627   1.385       .  S
C3623      F3628   1.383       .  S
C3623      F3629   1.383       .  S
C3626      F3630   1.383       .  S
C3626      F3631   1.384       .  S
C3626      F3632   1.384       .  S
C3633      C3634   1.399       .  A
C3633      C3638   1.406       .  A
C3633      H3640   1.083       .  S
C3634      C3635   1.421       .  A
C3635      C3636   1.401       .  A
C3635      C3642   1.523       .  S
C3636      C3637   1.401       .  A
C3636      H3641   1.082       .  S
C3637      C3638   1.427       .  A
C3638      C3639   1.522       .  S
C3639      F3643   1.385       .  S
C3639      F3644   1.383       .  S
C3639      F3645   1.384       .  S
C3642      F3646   1.385       .  S
C3642      F3647   1.382       .  S
C3642      F3648   1.383       .  S
C3649      C3650   1.409       .  A
C3649      C3654   1.409       .  A
C3649      H3656   1.082       .  S
C3650      C3651   1.421       .  A
C3651      C3652   1.409       .  A
C3651      C3658   1.520       .  S
C3652      C3653   1.410       .  A
C3652      H3657   1.082       .  S
C3653      C3654   1.422       .  A
C3654      C3655   1.522       .  S
C3655      F3659   1.385       .  S
C3655      F3660   1.383       .  S
C3655      F3661   1.382       .  S
C3658      F3662   1.383       .  S
C3658      F3663   1.382   1_554  S
C3658      F3664   1.385       .  S
C3665      C3666   1.396       .  A
C3665      C3670   1.400       .  A
C3665      H3672   1.083       .  S
C3666      C3667   1.423       .  A
C3667      C3668   1.411       .  A
C3667      C3674   1.520       .  S
C3668      C3669   1.404       .  A
C3668      H3673   1.083       .  S
C3669      C3670   1.428       .  A
C3670      C3671   1.524       .  S
C3671      F3675   1.385       .  S
C3671      F3676   1.383       .  S
C3671      F3677   1.383       .  S
C3674      F3678   1.385       .  S
C3674      F3679   1.383       .  S
C3674      F3680   1.382       .  S
C3681      C3682   1.399       .  A
C3681      C3686   1.404       .  A
C3681      H3688   1.084       .  S
C3682      C3683   1.423       .  A
C3683      C3684   1.404       .  A
C3683      C3690   1.520       .  S
C3684      C3685   1.399       .  A
C3684      H3689   1.083       .  S
C3685      C3686   1.422       .  A
C3686      C3687   1.520       .  S
C3687      F3691   1.385       .  S
C3687      F3692   1.382       .  S
C3687      F3693   1.385       .  S
C3690      F3694   1.381       .  S
C3690      F3695   1.383       .  S
C3690      F3696   1.385       .  S
C3697      C3698   1.405       .  A
C3697      C3702   1.410       .  A
C3697      H3704   1.083       .  S
C3698      C3699   1.413       .  A
C3699      C3700   1.410       .  A
C3699      C3706   1.519       .  S
C3700      C3701   1.414       .  A
C3700      H3705   1.082       .  S
C3701      C3702   1.424       .  A
C3702      C3703   1.520       .  S
C3703      F3707   1.385       .  S
C3703      F3708   1.383       .  S
C3703      F3709   1.383       .  S
C3706      F3710   1.382       .  S
C3706      F3711   1.384       .  S
C3706      F3712   1.385       .  S
C3713      C3714   1.402       .  A
C3713      C3718   1.406       .  A
C3713      H3720   1.083       .  S
C3714      C3715   1.418       .  A
C3715      C3716   1.411       .  A
C3715      C3722   1.516       .  S
C3716      C3717   1.403       .  A
C3716      H3721   1.083       .  S
C3717      C3718   1.422       .  A
C3718      C3719   1.522       .  S
C3719      F3723   1.385       .  S
C3719      F3724   1.383       .  S
C3719      F3725   1.383       .  S
C3722      F3726   1.381       .  S
C3722      F3727   1.383       .  S
C3722      F3728   1.385       .  S
C3729      C3730   1.412       .  A
C3729      C3734   1.406       .  A
C3729      H3736   1.083       .  S
C3730      C3731   1.418       .  A
C3731      C3732   1.405       .  A
C3731      C3738   1.520       .  S
C3732      C3733   1.404       .  A
C3732      H3737   1.081       .  S
C3733      C3734   1.411       .  A
C3734      C3735   1.518       .  S
C3735      F3739   1.385       .  S
C3735      F3740   1.382       .  S
C3735      F3741   1.384       .  S
C3738      F3742   1.383       .  S
C3738      F3743   1.383       .  S
C3738      F3744   1.385       .  S
C3745      C3746   1.402   1_556  A
C3745      C3750   1.405       .  A
C3745      H3752   1.083       .  S
C3746      C3747   1.423       .  A
C3747      C3748   1.411       .  A
C3747      C3754   1.518       .  S
C3748      C3749   1.400       .  A
C3748      H3753   1.083       .  S
C3749      C3750   1.417   1_554  A
C3750      C3751   1.518       .  S
C3751      F3755   1.385       .  S
C3751      F3756   1.382       .  S
C3751      F3757   1.382       .  S
C3754      F3758   1.382       .  S
C3754      F3759   1.384       .  S
C3754      F3760   1.385       .  S
C3761      C3762   1.398       .  A
C3761      C3766   1.404       .  A
C3761      H3768   1.083       .  S
C3762      C3763   1.423       .  A
C3763      C3764   1.408       .  A
C3763      C3770   1.521       .  S
C3764      C3765   1.403       .  A
C3764      H3769   1.083       .  S
C3765      C3766   1.428       .  A
C3766      C3767   1.523       .  S
C3767      F3771   1.385       .  S
C3767      F3772   1.383       .  S
C3767      F3773   1.383       .  S
C3770      F3774   1.383       .  S
C3770      F3775   1.382       .  S
C3770      F3776   1.385       .  S
C3777      C3778   1.403       .  A
C3777      C3782   1.403       .  A
C3777      H3784   1.083       .  S
C3778      C3779   1.422       .  A
C3779      C3780   1.405       .  A
C3779      C3786   1.520       .  S
C3780      C3781   1.397       .  A
C3780      H3785   1.080       .  S
C3781      C3782   1.416       .  A
C3782      C3783   1.519       .  S
C3783      F3787   1.385       .  S
C3783      F3788   1.381       .  S
C3783      F3789   1.382       .  S
C3786      F3790   1.383   1_556  S
C3786      F3791   1.384       .  S
C3786      F3792   1.385   1_556  S
C3793      C3794   1.402       .  A
C3793      C3798   1.409       .  A
C3793      H3800   1.083       .  S
C3794      C3795   1.418       .  A
C3795      C3796   1.403       .  A
C3795      C3802   1.520   1_556  S
C3796      C3797   1.402       .  A
C3796      H3801   1.083       .  S
C3797      C3798   1.418       .  A
C3798      C3799   1.517       .  S
C3799      F3803   1.385       .  S
C3799      F3804   1.382       .  S
C3799      F3805   1.383       .  S
C3802      F3806   1.381       .  S
C3802      F3807   1.382       .  S
C3802      F3808   1.385       .  S
C3809      C3810   1.411       .  A
C3809      C3814   1.403       .  A
C3809      H3816   1.082       .  S
C3810      C3811   1.419       .  A
C3811      C3812   1.402       .  A
C3811      C3818   1.522       .  S
C3812      C3813   1.407       .  A
C3812      H3817   1.082       .  S
C3813      C3814   1.415       .  A
C3814      C3815   1.521       .  S
C3815      F3819   1.383       .  S
C3815      F3820   1.384       .  S
C3815      F3821   1.385       .  S
C3818      F3822   1.383       .  S
C3818      F3823   1.383       .  S
C3818      F3824   1.385       .  S
C3825      C3826   1.407       .  A
C3825      C3830   1.411       .  A
C3825      H3832   1.082       .  S
C3826      C3827   1.417       .  A
C3827      C3828   1.410       .  A
C3827      C3834   1.520       .  S
C3828      C3829   1.413       .  A
C3828      H3833   1.082       .  S
C3829      C3830   1.424       .  A
C3830      C3831   1.520       .  S
C3831      F3835   1.385       .  S
C3831      F3836   1.383       .  S
C3831      F3837   1.384       .  S
C3834      F3838   1.382       .  S
C3834      F3839   1.383       .  S
C3834      F3840   1.385       .  S
C3841      C3842   1.400       .  A
C3841      C3846   1.404       .  A
C3841      H3848   1.084       .  S
C3842      C3843   1.406       .  A
C3843      C3844   1.406       .  A
C3843      C3850   1.517       .  S
C3844      C3845   1.414       .  A
C3844      H3849   1.082       .  S
C3845      C3846   1.425       .  A
C3846      C3847   1.522       .  S
C3847      F3851   1.385       .  S
C3847      F3852   1.383       .  S
C3847      F3853   1.384       .  S
C3850      F3854   1.382       .  S
C3850      F3855   1.383       .  S
C3850      F3856   1.384       .  S
C3857      C3858   1.410       .  A
C3857      C3862   1.406       .  A
C3857      H3864   1.083       .  S
C3858      C3859   1.424       .  A
C3859      C3860   1.410       .  A
C3859      C3866   1.520       .  S
C3860      C3861   1.401       .  A
C3860      H3865   1.084       .  S
C3861      C3862   1.409       .  A
C3862      C3863   1.516       .  S
C3863      F3867   1.385       .  S
C3863      F3868   1.383       .  S
C3863      F3869   1.382       .  S
C3866      F3870   1.383       .  S
C3866      F3871   1.383       .  S
C3866      F3872   1.385       .  S
C3873      C3874   1.399       .  A
C3873      C3878   1.405       .  A
C3873      H3880   1.084       .  S
C3874      C3875   1.420       .  A
C3875      C3876   1.401       .  A
C3875      C3882   1.520       .  S
C3876      C3877   1.399       .  A
C3876      H3881   1.083       .  S
C3877      C3878   1.421       .  A
C3878      C3879   1.519       .  S
C3879      F3883   1.385       .  S
C3879      F3884   1.384       .  S
C3879      F3885   1.382       .  S
C3882      F3886   1.382       .  S
C3882      F3887   1.378       .  S
C3882      F3888   1.385       .  S
C3889      C3890   1.411       .  A
C3889      C3894   1.408       .  A
C3889      H3896   1.082       .  S
C3890      C3891   1.421   1_655  A
C3891      C3892   1.410       .  A
C3891      C3898   1.521       .  S
C3892      C3893   1.410       .  A
C3892      H3897   1.082       .  S
C3893      C3894   1.419   1_455  A
C3894      C3895   1.521       .  S
C3895      F3899   1.385       .  S
C3895      F3900   1.384       .  S
C3895      F3901   1.383       .  S
C3898      F3902   1.383       .  S
C3898      F3903   1.383       .  S
C3898      F3904   1.385       .  S
C3905      C3906   1.403       .  A
C3905      C3910   1.404       .  A
C3905      H3912   1.084       .  S
C3906      C3907   1.409       .  A
C3907      C3908   1.404       .  A
C3907      C3914   1.517       .  S
C3908      C3909   1.411       .  A
C3908      H3913   1.082       .  S
C3909      C3910   1.421       .  A
C3910      C3911   1.521       .  S
C3911      F3915   1.385       .  S
C3911      F3916   1.383       .  S
C3911      F3917   1.383       .  S
C3914      F3918   1.383       .  S
C3914      F3919   1.383       .  S
C3914      F3920   1.385       .  S
C3921      C3922   1.415       .  A
C3921      C3926   1.406       .  A
C3921      H3928   1.082       .  S
C3922      C3923   1.425       .  A
C3923      C3924   1.407       .  A
C3923      C3930   1.522       .  S
C3924      C3925   1.401       .  A
C3924      H3929   1.084       .  S
C3925      C3926   1.404       .  A
C3926      C3927   1.515       .  S
C3927      F3931   1.384       .  S
C3927      F3932   1.383       .  S
C3927      F3933   1.383       .  S
C3930      F3934   1.383       .  S
C3930      F3935   1.384       .  S
C3930      F3936   1.385       .  S
C3937      C3938   1.399       .  A
C3937      C3942   1.396       .  A
C3937      H3944   1.083       .  S
C3938      C3939   1.422       .  A
C3939      C3940   1.407       .  A
C3939      C3946   1.520       .  S
C3940      C3941   1.400       .  A
C3940      H3945   1.083       .  S
C3941      C3942   1.416       .  A
C3942      C3943   1.519       .  S
C3943      F3947   1.385       .  S
C3943      F3948   1.381       .  S
C3943      F3949   1.382       .  S
C3946      F3950   1.383       .  S
C3946      F3951   1.384       .  S
C3946      F3952   1.385       .  S
C3953      C3954   1.413       .  A
C3953      C3958   1.405       .  A
C3953      H3960   1.081       .  S
C3954      C3955   1.421       .  A
C3955      C3956   1.411       .  A
C3955      C3962   1.520       .  S
C3956      C3957   1.410       .  A
C3956      H3961   1.082       .  S
C3957      C3958   1.415       .  A
C3958      C3959   1.520       .  S
C3959      F3963   1.385       .  S
C3959      F3964   1.383       .  S
C3959      F3965   1.383       .  S
C3962      F3966   1.383       .  S
C3962      F3967   1.383       .  S
C3962      F3968   1.385       .  S
C3969      C3970   1.401       .  A
C3969      C3974   1.406       .  A
C3969      H3976   1.083       .  S
C3970      C3971   1.423       .  A
C3971      C3972   1.400       .  A
C3971      C3978   1.524       .  S
C3972      C3973   1.401       .  A
C3972      H3977   1.083       .  S
C3973      C3974   1.423       .  A
C3974      C3975   1.522       .  S
C3975      F3979   1.385       .  S
C3975      F3980   1.382       .  S
C3975      F3981   1.381       .  S
C3978      F3982   1.383       .  S
C3978      F3983   1.383       .  S
C3978      F3984   1.385       .  S
C3985      C3986   1.399       .  A
C3985      C3990   1.405       .  A
C3985      H3992   1.083       .  S
C3986      C3987   1.415       .  A
C3987      C3988   1.401       .  A
C3987      C3994   1.517       .  S
C3988      C3989   1.399       .  A
C3988      H3993   1.084       .  S
C3989      C3990   1.417       .  A
C3990      C3991   1.518       .  S
C3991      F3995   1.385       .  S
C3991      F3996   1.383       .  S
C3991      F3997   1.382       .  S
C3994      F3998   1.381       .  S
C3994      F3999   1.383       .  S
C3994      F4000   1.385       .  S
C4001      C4002   1.404       .  A
C4001      C4006   1.409       .  A
C4001      H4008   1.084       .  S
C4002      C4003   1.410       .  A
C4003      C4004   1.404       .  A
C4003      C4010   1.519       .  S
C4004      C4005   1.410       .  A
C4004      H4009   1.083       .  S
C4005      C4006   1.418       .  A
C4006      C4007   1.518       .  S
C4007      F4011   1.385       .  S
C4007      F4012   1.383       .  S
C4007      F4013   1.384       .  S
C4010      F4014   1.382       .  S
C4010      F4015   1.383       .  S
C4010      F4016   1.385       .  S
C4017      C4018   1.403       .  A
C4017      C4022   1.402       .  A
C4017      H4024   1.082       .  S
C4018      C4019   1.410       .  A
C4019      C4020   1.404       .  A
C4019      C4026   1.520       .  S
C4020      C4021   1.413       .  A
C4020      H4025   1.082       .  S
C4021      C4022   1.421       .  A
C4022      C4023   1.521       .  S
C4023      F4027   1.385       .  S
C4023      F4028   1.383       .  S
C4023      F4029   1.383       .  S
C4026      F4030   1.384       .  S
C4026      F4031   1.382       .  S
C4026      F4032   1.385   1_655  S
C4033      C4034   1.404   1_455  A
C4033      C4038   1.411       .  A
C4033      H4040   1.082       .  S
C4034      C4035   1.425       .  A
C4035      C4036   1.407       .  A
C4035      C4042   1.523       .  S
C4036      C4037   1.406   1_655  A
C4036      H4041   1.082       .  S
C4037      C4038   1.427       .  A
C4038      C4039   1.522       .  S
C4039      F4043   1.385       .  S
C4039      F4044   1.383       .  S
C4039      F4045   1.381       .  S
C4042      F4046   1.383       .  S
C4042      F4047   1.383       .  S
C4042      F4048   1.385       .  S
C4049      C4050   1.400       .  A
C4049      C4054   1.405       .  A
C4049      H4056   1.082       .  S
C4050      C4051   1.408       .  A
C4051      C4052   1.408       .  A
C4051      C4058   1.518       .  S
C4052      C4053   1.414       .  A
C4052      H4057   1.082       .  S
C4053      C4054   1.425       .  A
C4054      C4055   1.522       .  S
C4055      F4059   1.385       .  S
C4055      F4060   1.383       .  S
C4055      F4061   1.383       .  S
C4058      F4062   1.383       .  S
C4058      F4063   1.384       .  S
C4058      F4064   1.384       .  S
C4065      C4066   1.402       .  A
C4065      C4070   1.403       .  A
C4065      H4072   1.084       .  S
C4066      C4067   1.409       .  A
C4067      C4068   1.404       .  A
C4067      C4074   1.518       .  S
C4068      C4069   1.411       .  A
C4068      H4073   1.083       .  S
C4069      C4070   1.418       .  A
C4070      C4071   1.520       .  S
C4071      F4075   1.385       .  S
C4071      F4076   1.384       .  S
C4071      F4077   1.383       .  S
C4074      F4078   1.383       .  S
C4074      F4079   1.383       .  S
C4074      F4080   1.385       .  S
C4081      C4082   1.408       .  A
C4081      C4086   1.410       .  A
C4081      H4088   1.082       .  S
C4082      C4083   1.429       .  A
C4083      C4084   1.409       .  A
C4083      C4090   1.522       .  S
C4084      C4085   1.400       .  A
C4084      H4089   1.083       .  S
C4085      C4086   1.420       .  A
C4086      C4087   1.521       .  S
C4087      F4091   1.385       .  S
C4087      F4092   1.383       .  S
C4087      F4093   1.382       .  S
C4090      F4094   1.383       .  S
C4090      F4095   1.383       .  S
C4090      F4096   1.385       .  S
C4097      C4098   1.415       .  A
C4097      C4102   1.409       .  A
C4097      H4104   1.082       .  S
C4098      C4099   1.423       .  A
C4099      C4100   1.402       .  A
C4099      C4106   1.522       .  S
C4100      C4101   1.401       .  A
C4100      H4105   1.083       .  S
C4101      C4102   1.408       .  A
C4102      C4103   1.517       .  S
C4103      F4107   1.384       .  S
C4103      F4108   1.384       .  S
C4103      F4109   1.382       .  S
C4106      F4110   1.382       .  S
C4106      F4111   1.383       .  S
C4106      F4112   1.385       .  S
C4113      C4114   1.404       .  A
C4113      C4118   1.411       .  A
C4113      H4120   1.083       .  S
C4114      C4115   1.420       .  A
C4115      C4116   1.405       .  A
C4115      C4122   1.519       .  S
C4116      C4117   1.401       .  A
C4116      H4121   1.083       .  S
C4117      C4118   1.418       .  A
C4118      C4119   1.517       .  S
C4119      F4123   1.384       .  S
C4119      F4124   1.383       .  S
C4119      F4125   1.383       .  S
C4122      F4126   1.378       .  S
C4122      F4127   1.382       .  S
C4122      F4128   1.385       .  S
C4129      C4130   1.403       .  A
C4129      C4134   1.406       .  A
C4129      H4136   1.084       .  S
C4130      C4131   1.409       .  A
C4131      C4132   1.406       .  A
C4131      C4138   1.517       .  S
C4132      C4133   1.409       .  A
C4132      H4137   1.083       .  S
C4133      C4134   1.417       .  A
C4134      C4135   1.519       .  S
C4135      F4139   1.385       .  S
C4135      F4140   1.383       .  S
C4135      F4141   1.384       .  S
C4138      F4142   1.384       .  S
C4138      F4143   1.383       .  S
C4138      F4144   1.384   1_655  S
C4145      C4146   1.402   1_455  A
C4145      C4150   1.413       .  A
C4145      H4152   1.083       .  S
C4146      C4147   1.424   1_554  A
C4147      C4148   1.405   1_556  A
C4147      C4154   1.523       .  S
C4148      C4149   1.404   1_655  A
C4148      H4153   1.082   1_554  S
C4149      C4150   1.430       .  A
C4150      C4151   1.521       .  S
C4151      F4155   1.385       .  S
C4151      F4156   1.384       .  S
C4151      F4157   1.383   1_554  S
C4154      F4158   1.383   1_556  S
C4154      F4159   1.383       .  S
C4154      F4160   1.385       .  S
C4161      C4162   1.398       .  A
C4161      C4166   1.406       .  A
C4161      H4168   1.083       .  S
C4162      C4163   1.420       .  A
C4163      C4164   1.402       .  A
C4163      C4170   1.522       .  S
C4164      C4165   1.403       .  A
C4164      H4169   1.082       .  S
C4165      C4166   1.427       .  A
C4166      C4167   1.521       .  S
C4167      F4171   1.385       .  S
C4167      F4172   1.384       .  S
C4167      F4173   1.383       .  S
C4170      F4174   1.382       .  S
C4170      F4175   1.380       .  S
C4170      F4176   1.385       .  S
C4177      C4178   1.408       .  A
C4177      C4182   1.411       .  A
C4177      H4184   1.082       .  S
C4178      C4179   1.428   1_655  A
C4179      C4180   1.412       .  A
C4179      C4186   1.521       .  S
C4180      C4181   1.403       .  A
C4180      H4185   1.083       .  S
C4181      C4182   1.422   1_455  A
C4182      C4183   1.521       .  S
C4183      F4187   1.385       .  S
C4183      F4188   1.383       .  S
C4183      F4189   1.383   1_655  S
C4186      F4190   1.383       .  S
C4186      F4191   1.384       .  S
C4186      F4192   1.385       .  S
C4193      C4194   1.404       .  A
C4193      C4198   1.410       .  A
C4193      H4200   1.083       .  S
C4194      C4195   1.426       .  A
C4195      C4196   1.405       .  A
C4195      C4202   1.523       .  S
C4196      C4197   1.401       .  A
C4196      H4201   1.083       .  S
C4197      C4198   1.423       .  A
C4198      C4199   1.521       .  S
C4199      F4203   1.385       .  S
C4199      F4204   1.382       .  S
C4199      F4205   1.383       .  S
C4202      F4206   1.383   1_655  S
C4202      F4207   1.383       .  S
C4202      F4208   1.385       .  S
C4209      C4210   1.413       .  A
C4209      C4214   1.406       .  A
C4209      H4216   1.082       .  S
C4210      C4211   1.421       .  A
C4211      C4212   1.402       .  A
C4211      C4218   1.522       .  S
C4212      C4213   1.406       .  A
C4212      H4217   1.082       .  S
C4213      C4214   1.414       .  A
C4214      C4215   1.520       .  S
C4215      F4219   1.385       .  S
C4215      F4220   1.384       .  S
C4215      F4221   1.383       .  S
C4218      F4222   1.384       .  S
C4218      F4223   1.384       .  S
C4218      F4224   1.385       .  S
C4225      C4226   1.401   1_554  A
C4225      C4230   1.408       .  A
C4225      H4232   1.083       .  S
C4226      C4227   1.418       .  A
C4227      C4228   1.406       .  A
C4227      C4234   1.521       .  S
C4228      C4229   1.406   1_556  A
C4228      H4233   1.082       .  S
C4229      C4230   1.425       .  A
C4230      C4231   1.519       .  S
C4231      F4235   1.385       .  S
C4231      F4236   1.381       .  S
C4231      F4237   1.382       .  S
C4234      F4238   1.383       .  S
C4234      F4239   1.383       .  S
C4234      F4240   1.385       .  S
C4241      C4242   1.402       .  A
C4241      C4246   1.402       .  A
C4241      H4248   1.084       .  S
C4242      C4243   1.416       .  A
C4243      C4244   1.408       .  A
C4243      C4250   1.518       .  S
C4244      C4245   1.404       .  A
C4244      H4249   1.083       .  S
C4245      C4246   1.415       .  A
C4246      C4247   1.518       .  S
C4247      F4251   1.385       .  S
C4247      F4252   1.383       .  S
C4247      F4253   1.384       .  S
C4250      F4254   1.382       .  S
C4250      F4255   1.383       .  S
C4250      F4256   1.385       .  S
C4257      C4258   1.411       .  A
C4257      C4262   1.404       .  A
C4257      H4264   1.083       .  S
C4258      C4259   1.421       .  A
C4259      C4260   1.404       .  A
C4259      C4266   1.521       .  S
C4260      C4261   1.403       .  A
C4260      H4265   1.083       .  S
C4261      C4262   1.409       .  A
C4262      C4263   1.517       .  S
C4263      F4267   1.385       .  S
C4263      F4268   1.382       .  S
C4263      F4269   1.383       .  S
C4266      F4270   1.383       .  S
C4266      F4271   1.383       .  S
C4266      F4272   1.385       .  S
C4273      C4274   1.406       .  A
C4273      C4278   1.411       .  A
C4273      H4280   1.083       .  S
C4274      C4275   1.413   1_556  A
C4275      C4276   1.409       .  A
C4275      C4282   1.519       .  S
C4276      C4277   1.414       .  A
C4276      H4281   1.082       .  S
C4277      C4278   1.424   1_554  A
C4278      C4279   1.519       .  S
C4279      F4283   1.385       .  S
C4279      F4284   1.383       .  S
C4279      F4285   1.383       .  S
C4282      F4286   1.384       .  S
C4282      F4287   1.382       .  S
C4282      F4288   1.385       .  S
C4289      C4290   1.403       .  A
C4289      C4294   1.402       .  A
C4289      H4296   1.083   1_556  S
C4290      C4291   1.420       .  A
C4291      C4292   1.413       .  A
C4291      C4298   1.517       .  S
C4292      C4293   1.404       .  A
C4292      H4297   1.083       .  S
C4293      C4294   1.419       .  A
C4294      C4295   1.522   1_556  S
C4295      F4299   1.385       .  S
C4295      F4300   1.382       .  S
C4295      F4301   1.381       .  S
C4298      F4302   1.383       .  S
C4298      F4303   1.382       .  S
C4298      F4304   1.385       .  S
C4305      C4306   1.408       .  A
C4305      C4310   1.404       .  A
C4305      H4312   1.083       .  S
C4306      C4307   1.414       .  A
C4307      C4308   1.403       .  A
C4307      C4314   1.520       .  S
C4308      C4309   1.411       .  A
C4308      H4313   1.082       .  S
C4309      C4310   1.419       .  A
C4310      C4311   1.520       .  S
C4311      F4315   1.385       .  S
C4311      F4316   1.383       .  S
C4311      F4317   1.384       .  S
C4314      F4318   1.382       .  S
C4314      F4319   1.383       .  S
C4314      F4320   1.385       .  S
C4321      C4322   1.413   1_655  A
C4321      C4326   1.411       .  A
C4321      H4328   1.082       .  S
C4322      C4323   1.424       .  A
C4323      C4324   1.408       .  A
C4323      C4330   1.522       .  S
C4324      C4325   1.407       .  A
C4324      H4329   1.082       .  S
C4325      C4326   1.416   1_455  A
C4326      C4327   1.519       .  S
C4327      F4331   1.385   1_554  S
C4327      F4332   1.384   1_554  S
C4327      F4333   1.383       .  S
C4330      F4334   1.383       .  S
C4330      F4335   1.384       .  S
C4330      F4336   1.385       .  S
C4337      C4338   1.402       .  A
C4337      C4342   1.409       .  A
C4337      H4344   1.084       .  S
C4338      C4339   1.406       .  A
C4339      C4340   1.403       .  A
C4339      C4346   1.516       .  S
C4340      C4341   1.411       .  A
C4340      H4345   1.082       .  S
C4341      C4342   1.422       .  A
C4342      C4343   1.519       .  S
C4343      F4347   1.385       .  S
C4343      F4348   1.384       .  S
C4343      F4349   1.383       .  S
C4346      F4350   1.382       .  S
C4346      F4351   1.383       .  S
C4346      F4352   1.384       .  S
C4353      C4354   1.404       .  A
C4353      C4358   1.402       .  A
C4353      H4360   1.083       .  S
C4354      C4355   1.410       .  A
C4355      C4356   1.405       .  A
C4355      C4362   1.517       .  S
C4356      C4357   1.412       .  A
C4356      H4361   1.082       .  S
C4357      C4358   1.421       .  A
C4358      C4359   1.522       .  S
C4359      F4363   1.385       .  S
C4359      F4364   1.384       .  S
C4359      F4365   1.383       .  S
C4362      F4366   1.384       .  S
C4362      F4367   1.382       .  S
C4362      F4368   1.385       .  S
C4369      C4370   1.405       .  A
C4369      C4374   1.411       .  A
C4369      H4376   1.082       .  S
C4370      C4371   1.428       .  A
C4371      C4372   1.407       .  A
C4371      C4378   1.524       .  S
C4372      C4373   1.403       .  A
C4372      H4377   1.082       .  S
C4373      C4374   1.425       .  A
C4374      C4375   1.520       .  S
C4375      F4379   1.385       .  S
C4375      F4380   1.384   1_455  S
C4375      F4381   1.382       .  S
C4378      F4382   1.384   1_455  S
C4378      F4383   1.382       .  S
C4378      F4384   1.385       .  S
C4385      C4386   1.411       .  A
C4385      C4390   1.408       .  A
C4385      H4392   1.083       .  S
C4386      C4387   1.418       .  A
C4387      C4388   1.403       .  A
C4387      C4394   1.521       .  S
C4388      C4389   1.407       .  A
C4388      H4393   1.083       .  S
C4389      C4390   1.413       .  A
C4390      C4391   1.518       .  S
C4391      F4395   1.385       .  S
C4391      F4396   1.382       .  S
C4391      F4397   1.384       .  S
C4394      F4398   1.383       .  S
C4394      F4399   1.384       .  S
C4394      F4400   1.385       .  S
C4401      C4402   1.404       .  A
C4401      C4406   1.412       .  A
C4401      H4408   1.083       .  S
C4402      C4403   1.419       .  A
C4403      C4404   1.402       .  A
C4403      C4410   1.521   1_455  S
C4404      C4405   1.401       .  A
C4404      H4409   1.084       .  S
C4405      C4406   1.418       .  A
C4406      C4407   1.516       .  S
C4407      F4411   1.385       .  S
C4407      F4412   1.383       .  S
C4407      F4413   1.382       .  S
C4410      F4414   1.382       .  S
C4410      F4415   1.382       .  S
C4410      F4416   1.385       .  S
