geometry optimzed in LAMMPS
_audit_creation_date              2020-12-01 
_audit_creation_method            'lammps2cif' 
_symmetry_space_group_name_H-M    'P1' 
_symmetry_Int_Tables_number       1 
_symmetry_cell_setting            triclinic 
loop_ 
_symmetry_equiv_pos_as_xyz 
  x,y,z 
_cell_length_a                    64.09996344 
_cell_length_b                    64.0911714525397 
_cell_length_c                    42.169191777284766 
_cell_angle_alpha                 90.07120193082116 
_cell_angle_beta                  90.05244708540435 
_cell_angle_gamma                 89.86690802558073 
loop_ 
_atom_site_label 
_atom_site_type_symbol 
_atom_site_fract_x 
_atom_site_fract_y 
_atom_site_fract_z 
_atom_site_charge 
In1        In  0.12437329  0.27404400  0.98034523     1.36900
C2          C  0.10100407  0.29546565  0.93934389     0.77400
O3          O  0.12960102  0.24880949  0.94414355    -0.61000
O4          O  0.10732452  0.24358890  0.98042283    -0.52000
C5          C  0.16545366  0.27523539  0.98857906     0.70100
O6          O  0.15603505  0.28677634  0.96894230    -0.46800
C7          C  0.11313202  0.28921495  0.03674335     0.74800
O8          O  0.09376192  0.28276684  0.95926984    -0.58700
O9          O  0.11353221  0.26993813  0.03070217    -0.48800
O10         O  0.12054361  0.29770452  0.94103793    -0.55100
C11         C  0.11559719  0.23708044  0.95513693     0.85000
O12         O  0.15377261  0.26259836  0.00288591    -0.57000
O13         O  0.11815581  0.30063818  0.01368130    -0.60300
In14       In  0.03289283  0.10072803  0.78171291     1.36900
C15         C  0.05537788  0.12434118  0.82040228     0.77400
O16         O  0.05999217  0.10306248  0.74907440    -0.61000
O17         O  0.03158604  0.11739237  0.73487973    -0.52000
C18         C  0.03443456  0.05975489  0.77282279     0.70100
O19         O  0.04672484  0.06920413  0.79121926    -0.46800
C20         C  0.99481345  0.10798736  0.80451026     0.74800
O21         O  0.05348713  0.10491664  0.82455601    -0.58700
O22         O  0.99979801  0.11215401  0.77625517    -0.48800
O23         O  0.04511523  0.13155748  0.79738363    -0.55100
C24         C  0.05053636  0.11384031  0.72860717     0.85000
O25         O  0.02109061  0.07122241  0.75943573    -0.57000
O26         O  0.00926944  0.09985453  0.82059171    -0.60300
In27       In  0.86985791  0.19900898  0.98594464     1.36900
C28         C  0.89038096  0.17819317  0.94108201     0.77400
O29         O  0.86184014  0.22334359  0.95034762    -0.61000
O30         O  0.88337711  0.23130220  0.98652291    -0.52000
C31         C  0.82963759  0.19996699  0.99934039     0.70100
O32         O  0.83720887  0.18787852  0.97866201    -0.46800
C33         C  0.88548625  0.18293057  0.03882870     0.74800
O34         O  0.87116717  0.17550249  0.94608184    -0.58700
O35         O  0.88894330  0.20144409  0.03025756    -0.48800
O36         O  0.89901041  0.19087237  0.95974186    -0.55100
C37         C  0.87373656  0.23701520  0.96189592     0.85000
O38         O  0.84282967  0.21106100  0.01374831    -0.57000
O39         O  0.87392000  0.17274301  0.02024669    -0.60300
In40       In  0.95283901  0.37027679  0.78234560     1.36900
C41         C  0.93336564  0.34741643  0.82535365     0.77400
O42         O  0.92539997  0.36294068  0.75127223    -0.61000
O43         O  0.95532021  0.35360065  0.73554802    -0.52000
C44         C  0.95158794  0.41146129  0.77451803     0.70100
O45         O  0.93936464  0.40184985  0.79273943    -0.46800
C46         C  0.99081880  0.36355805  0.80578503     0.74800
O47         O  0.92927929  0.36653633  0.82154844    -0.58700
O48         O  0.98544180  0.35764946  0.77842614    -0.48800
O49         O  0.94705018  0.34023546  0.80692844    -0.55100
C50         C  0.93588853  0.35310402  0.73092252     0.85000
O51         O  0.96421843  0.39987067  0.75982275    -0.57000
O52         O  0.97698565  0.37392314  0.82018445    -0.60300
In53       In  0.11873230  0.68809929  0.52789518     1.36900
C54         C  0.09477978  0.66412884  0.56379681     0.77400
O55         O  0.10230173  0.71897506  0.53117339    -0.61000
O56         O  0.12218689  0.70992990  0.56884907    -0.52000
C57         C  0.15982475  0.68742355  0.51948915     0.70100
O58         O  0.15064204  0.67529610  0.53844704    -0.46800
C59         C  0.10637192  0.67625892  0.47066983     0.74800
O60         O  0.11442712  0.66231514  0.56375868    -0.58700
O61         O  0.10711591  0.69515194  0.47898542    -0.48800
O62         O  0.08780947  0.67787077  0.54528701    -0.55100
C63         C  0.10904759  0.72293485  0.55863050     0.85000
O64         O  0.14795218  0.70026192  0.50580338    -0.57000
O65         O  0.11250122  0.66358059  0.49156976    -0.60300
In66       In  0.02919705  0.86332281  0.73282462     1.36900
C67         C  0.04737146  0.83737787  0.69220501     0.77400
O68         O  0.05693132  0.85612596  0.76327442    -0.61000
O69         O  0.02705925  0.84671319  0.77936642    -0.52000
C70         C  0.03385499  0.90416297  0.74196116     0.70100
O71         O  0.04031648  0.89504086  0.71729531    -0.46800
C72         C  0.98984907  0.86046577  0.71281497     0.74800
O73         O  0.05277734  0.85625833  0.69466298    -0.58700
O74         O  0.99568879  0.85395141  0.73965384    -0.48800
O75         O  0.03237927  0.83222473  0.70976836    -0.55100
C76         C  0.04649813  0.84686134  0.78429442     0.85000
O77         O  0.02491588  0.89240926  0.76163221    -0.57000
O78         O  0.00405325  0.86925417  0.69715125    -0.60300
In79       In  0.85544758  0.77888801  0.53925428     1.36900
C80         C  0.87735918  0.79904972  0.58311879     0.77400
O81         O  0.84869002  0.75408324  0.57502005    -0.61000
O82         O  0.86939195  0.74672035  0.53757035    -0.52000
C83         C  0.81500655  0.77833100  0.52632593     0.70100
O84         O  0.82262794  0.78902624  0.54869155    -0.46800
C85         C  0.86983225  0.79647999  0.48661343     0.74800
O86         O  0.85816935  0.80261465  0.57873149    -0.58700
O87         O  0.87148161  0.77717306  0.49212620    -0.48800
O88         O  0.88517422  0.78587979  0.56432652    -0.55100
C89         C  0.86058148  0.74064617  0.56267075     0.85000
O90         O  0.82826203  0.76820963  0.51052329    -0.57000
O91         O  0.86071825  0.80656476  0.50820297    -0.60300
In92       In  0.94613370  0.60787848  0.73315392     1.36900
C93         C  0.91988345  0.63057662  0.69850208     0.77400
O94         O  0.92481887  0.60856628  0.77517454    -0.61000
O95         O  0.95180855  0.62762220  0.77642400    -0.52000
C96         C  0.94514653  0.56677029  0.74041483     0.70100
O97         O  0.93406130  0.57628369  0.72041263    -0.46800
C98         C  0.98297069  0.61202507  0.70497053     0.74800
O99         O  0.91848909  0.61101868  0.70042937    -0.58700
O100        O  0.97963730  0.61798685  0.73299129    -0.48800
O101        O  0.93491699  0.63831001  0.71368049    -0.55100
C102        C  0.93554830  0.62160331  0.79048321     0.85000
O103        O  0.95684161  0.57849051  0.75660565    -0.57000
O104        O  0.96745369  0.60392933  0.69143789    -0.60300
In105      In  0.44980452  0.87082688  0.29140436     1.36900
C106        C  0.42202247  0.84944859  0.32527758     0.77400
O107        O  0.42545620  0.86815963  0.25364473    -0.61000
O108        O  0.45519952  0.85506364  0.24449597    -0.52000
C109        C  0.45222278  0.91224546  0.28335556     0.70100
O110        O  0.44005367  0.90379300  0.30290971    -0.46800
C111        C  0.48532480  0.85938679  0.31971529     0.74800
O112        O  0.42377460  0.86902426  0.32751378    -0.58700
O113        O  0.48175916  0.85636028  0.29072196    -0.48800
O114        O  0.43469771  0.84104922  0.30630837    -0.55100
C115        C  0.43686803  0.85816169  0.23460123     0.85000
O116        O  0.46338181  0.89940197  0.26836802    -0.57000
O117        O  0.47085597  0.86876309  0.33412846    -0.60300
In118      In  0.61885987  0.76767293  0.48856544     1.36900
C119        C  0.59712546  0.78626304  0.44275932     0.77400
O120        O  0.62648759  0.73972974  0.45904756    -0.61000
O121        O  0.60575925  0.73603717  0.49783738    -0.52000
C122        C  0.65952310  0.77180204  0.49767656     0.70100
O123        O  0.65057341  0.77688482  0.47221759    -0.46800
C124        C  0.60078436  0.78540928  0.53809924     0.74800
O125        O  0.59133078  0.76966266  0.45605735    -0.58700
O126        O  0.60239240  0.76591878  0.53511350    -0.48800
O127        O  0.61438858  0.79301827  0.45258787    -0.55100
C128        C  0.61486124  0.72762653  0.47458057     0.85000
O129        O  0.64754005  0.76433642  0.51836764    -0.57000
O130        O  0.60918317  0.79576069  0.51623070    -0.60300
In131      In  0.35614629  0.69831382  0.47611912     1.36900
C132        C  0.38054466  0.67779185  0.43534202     0.77400
O133        O  0.35110371  0.72320369  0.43961099    -0.61000
O134        O  0.36921484  0.73051468  0.48017358    -0.52000
C135        C  0.31517700  0.69571409  0.48647328     0.70100
O136        O  0.32449398  0.68473413  0.46599616    -0.46800
C137        C  0.36934119  0.68361319  0.53115873     0.74800
O138        O  0.36093530  0.67596529  0.43505373    -0.58700
O139        O  0.37082605  0.70260378  0.52378080    -0.48800
O140        O  0.38730086  0.68975667  0.45670746    -0.55100
C141        C  0.36221780  0.73649654  0.45379040     0.85000
O142        O  0.32694361  0.70812312  0.50109480    -0.57000
O143        O  0.36148046  0.67214025  0.50999921    -0.60300
In144      In  0.53382491  0.60563858  0.28567089     1.36900
C145        C  0.55362172  0.62388395  0.33355097     0.77400
O146        O  0.56271004  0.61314493  0.25778069    -0.61000
O147        O  0.53344016  0.62260525  0.23940164    -0.52000
C148        C  0.53444907  0.56538243  0.27119512     0.70100
O149        O  0.54666342  0.57346887  0.29107570    -0.46800
C150        C  0.49562983  0.61539505  0.30565113     0.74800
O151        O  0.55287174  0.60432226  0.33053166    -0.58700
O152        O  0.50324469  0.62230206  0.28021885    -0.48800
O153        O  0.54435019  0.63375241  0.31184732    -0.55100
C154        C  0.55298433  0.62273755  0.23628742     0.85000
O155        O  0.52163339  0.57795234  0.25895669    -0.57000
O156        O  0.50704579  0.60224226  0.31962123    -0.60300
In157      In  0.36113903  0.28364301  0.03555425     1.36900
C158        C  0.38004101  0.30791579  0.07749272     0.77400
O159        O  0.35704309  0.25992019  0.07434143    -0.61000
O160        O  0.37746303  0.25262681  0.03661803    -0.52000
C161        C  0.32070603  0.28431619  0.02172985     0.70100
O162        O  0.32926374  0.29778272  0.03916848    -0.46800
C163        C  0.37828346  0.29707065  0.98199846     0.74800
O164        O  0.36058173  0.30501953  0.07799980    -0.58700
O165        O  0.37696575  0.27800250  0.98902835    -0.48800
O166        O  0.38960945  0.29816648  0.05598363    -0.55100
C167        C  0.36983942  0.24706520  0.06277448     0.85000
O168        O  0.33296371  0.27060129  0.01120252    -0.57000
O169        O  0.36970512  0.30921608  0.00162178    -0.60300
In170      In  0.52587579  0.36813617  0.24549397     1.36900
C171        C  0.54687239  0.34131154  0.20895930     0.77400
O172        O  0.55242922  0.36404316  0.27921610    -0.61000
O173        O  0.52254438  0.35406414  0.29416551    -0.52000
C174        C  0.52907707  0.40933134  0.25124516     0.70100
O175        O  0.53887471  0.39904378  0.23044119    -0.46800
C176        C  0.48763277  0.36344760  0.22199748     0.74800
O177        O  0.55037725  0.36070357  0.20848345    -0.58700
O178        O  0.49309975  0.35589640  0.24835545    -0.48800
O179        O  0.53211226  0.33617803  0.22691677    -0.55100
C180        C  0.54180789  0.35510185  0.30028673     0.85000
O181        O  0.51753253  0.39837823  0.26874737    -0.57000
O182        O  0.50151523  0.37398900  0.20823859    -0.60300
In183      In  0.45175516  0.10838664  0.23056764     1.36900
C184        C  0.42751465  0.13226144  0.19457783     0.77400
O185        O  0.42743423  0.11155449  0.26860480    -0.61000
O186        O  0.45653716  0.12637747  0.27568407    -0.52000
C187        C  0.45176149  0.06688802  0.23662254     0.70100
O188        O  0.43827306  0.07646986  0.22038448    -0.46800
C189        C  0.48903564  0.11538652  0.20493750     0.74800
O190        O  0.42737116  0.11259874  0.19231222    -0.58700
O191        O  0.48549096  0.11744191  0.23416354    -0.48800
O192        O  0.44054861  0.13933687  0.21416694    -0.55100
C193        C  0.43848269  0.12297724  0.28623404     0.85000
O194        O  0.46472641  0.07860128  0.25022502    -0.57000
O195        O  0.47349046  0.10958894  0.18886093    -0.60300
In196      In  0.63527083  0.19480736  0.05639347     1.36900
C197        C  0.61427729  0.16916677  0.09352711     0.77400
O198        O  0.63455243  0.21906455  0.09467147    -0.61000
O199        O  0.61450735  0.22320866  0.05542613    -0.52000
C200        C  0.67650018  0.19730310  0.05049431     0.70100
O201        O  0.66759030  0.18183221  0.06292701    -0.46800
C202        C  0.62600148  0.18093930  0.99881994     0.74800
O203        O  0.63192025  0.17616583  0.10144716    -0.58700
O204        O  0.62360920  0.19985495  0.00666884    -0.48800
O205        O  0.60786352  0.17491088  0.06674261    -0.55100
C206        C  0.62052336  0.23004887  0.08195325     0.85000
O207        O  0.66416799  0.21140557  0.04133956    -0.57000
O208        O  0.63354922  0.16955444  0.02033021    -0.60300
In209      In  0.63111326  0.27663453  0.54186978     1.36900
C210        C  0.61409422  0.29877786  0.58838918     0.77400
O211        O  0.62295792  0.30332255  0.50984144    -0.61000
O212        O  0.60948418  0.27376738  0.50030584    -0.52000
C213        C  0.67034213  0.27507991  0.52193857     0.70100
O214        O  0.66352473  0.28954162  0.53946123    -0.46800
C215        C  0.62625044  0.23911645  0.56713929     0.74800
O216        O  0.63357924  0.29820129  0.58409153    -0.58700
O217        O  0.61744567  0.24455158  0.54168678    -0.48800
O218        O  0.60384301  0.28771782  0.56921775    -0.55100
C219        C  0.61055519  0.29281603  0.49303066     0.85000
O220        O  0.65685595  0.26174138  0.51443857    -0.57000
O221        O  0.63770445  0.25297145  0.57930716    -0.60300
In222      In  0.55239389  0.10175332  0.74598681     1.36900
C223        C  0.57340067  0.12559392  0.70595419     0.77400
O224        O  0.52935920  0.09971504  0.70618939    -0.61000
O225        O  0.51930265  0.11348820  0.74909285    -0.52000
C226        C  0.55417892  0.06064806  0.75267956     0.70100
O227        O  0.56524221  0.07033647  0.73292872    -0.46800
C228        C  0.56715431  0.11579191  0.80091418     0.74800
O229        O  0.57560185  0.10601596  0.70632512    -0.58700
O230        O  0.54805353  0.11653670  0.79382361    -0.48800
O231        O  0.56111993  0.13264614  0.72671725    -0.55100
C232        C  0.51480399  0.10868974  0.72089036     0.85000
O233        O  0.54227308  0.07202621  0.76901176    -0.57000
O234        O  0.57859042  0.10752001  0.78004160    -0.60300
In235      In  0.47197940  0.37036215  0.74076196     1.36900
C236        C  0.45669516  0.34703837  0.69423402     0.77400
O237        O  0.49916899  0.37632099  0.70882129    -0.61000
O238        O  0.50451576  0.35920015  0.75100149    -0.52000
C239        C  0.46565735  0.41108544  0.74949970     0.70100
O240        O  0.45665350  0.40075084  0.72808789    -0.46800
C241        C  0.45280327  0.35345609  0.79032698     0.74800
O242        O  0.45278492  0.36628221  0.69657507    -0.58700
O243        O  0.47235140  0.35537577  0.78896776    -0.48800
O244        O  0.46823321  0.33985453  0.71584306    -0.55100
C245        C  0.51204750  0.36638310  0.72565986     0.85000
O246        O  0.47793966  0.40049057  0.76639460    -0.57000
O247        O  0.44323367  0.36080512  0.76678048    -0.60300
In248      In  0.37728684  0.19592839  0.55107741     1.36900
C249        C  0.40206032  0.17445515  0.59010480     0.77400
O250        O  0.38375607  0.17066537  0.51583017    -0.61000
O251        O  0.38425117  0.20180675  0.49958572    -0.52000
C252        C  0.33585602  0.19337413  0.54735832     0.70100
O253        O  0.34692584  0.17926330  0.55979534    -0.46800
C254        C  0.38804391  0.23313698  0.57363356     0.74800
O255        O  0.38250034  0.17513104  0.59369637    -0.58700
O256        O  0.39529695  0.22564876  0.54824988    -0.48800
O257        O  0.40865239  0.18462571  0.56664048    -0.55100
C258        C  0.38653768  0.18280471  0.49272917     0.85000
O259        O  0.34605089  0.20886039  0.53758352    -0.57000
O260        O  0.37432287  0.22192133  0.58650368    -0.60300
In261      In  0.11980833  0.76702957  0.03710045     1.36900
C262        C  0.09725775  0.78667232  0.08075716     0.77400
O263        O  0.11373492  0.79454021  0.00575054    -0.61000
O264        O  0.10689665  0.76437004  0.98796048    -0.52000
C265        C  0.16075212  0.77006220  0.02863683     0.70100
O266        O  0.15112756  0.78037858  0.04952943    -0.46800
C267        C  0.11214609  0.72809021  0.05519407     0.74800
O268        O  0.11691441  0.78623999  0.08172631    -0.58700
O269        O  0.10282680  0.73676641  0.03248950    -0.48800
O270        O  0.08941678  0.77707577  0.05760467    -0.55100
C271        C  0.10702677  0.78375331  0.98290132     0.85000
O272        O  0.14939404  0.75798773  0.01257007    -0.57000
O273        O  0.12595713  0.73926303  0.06796428    -0.60300
In274      In  0.02505057  0.59516153  0.22610140     1.36900
C275        C  0.04426721  0.61710576  0.18162718     0.77400
O276        O  0.99852155  0.58860145  0.19321820    -0.61000
O277        O  0.99256729  0.60699880  0.23397836    -0.52000
C278        C  0.02879509  0.55481627  0.23904604     0.70100
O279        O  0.03387032  0.56236443  0.21254762    -0.46800
C280        C  0.04292944  0.61429410  0.27469615     0.74800
O281        O  0.02840086  0.62347322  0.19632979    -0.58700
O282        O  0.05301369  0.60359430  0.25484370    -0.48800
O283        O  0.05011990  0.59896582  0.18914806    -0.55100
C284        C  0.98544873  0.59927214  0.20869316     0.85000
O285        O  0.02128088  0.56785460  0.25829751    -0.57000
O286        O  0.02344493  0.61446684  0.27039648    -0.60300
In287      In  0.95210788  0.86781465  0.23518767     1.36900
C288        C  0.93124904  0.84548277  0.19284646     0.77400
O289        O  0.97624470  0.86989986  0.19718121    -0.61000
O290        O  0.98353933  0.85314825  0.23918728    -0.52000
C291        C  0.95423959  0.90887058  0.24331310     0.70100
O292        O  0.94134270  0.90025652  0.22496071    -0.46800
C293        C  0.93504217  0.85537806  0.28924668     0.74800
O294        O  0.92779057  0.86472414  0.19677034    -0.58700
O295        O  0.95397657  0.85230242  0.28269557    -0.48800
O296        O  0.94472959  0.83781350  0.21119331    -0.55100
C297        C  0.98921511  0.85856486  0.21172353     0.85000
O298        O  0.96615101  0.89626363  0.25745263    -0.57000
O299        O  0.92489505  0.86466011  0.26790629    -0.60300
In300      In  0.85727323  0.69539876  0.04383014     1.36900
C301        C  0.87824399  0.67324383  0.08632697     0.77400
O302        O  0.86010096  0.67187552  0.00464997    -0.61000
O303        O  0.88044694  0.69793696  0.00421358    -0.52000
C304        C  0.81697641  0.69326423  0.03026470     0.70100
O305        O  0.82596860  0.68053794  0.04859494    -0.46800
C306        C  0.86202606  0.73314394  0.06900065     0.74800
O307        O  0.85857970  0.67271386  0.08471315    -0.58700
O308        O  0.86563437  0.72926071  0.04016622    -0.48800
O309        O  0.88673996  0.68460235  0.06578696    -0.55100
C310        C  0.87499954  0.68109178  0.99120806     0.85000
O311        O  0.82868198  0.70739492  0.01965173    -0.57000
O312        O  0.85482860  0.71788615  0.08421914    -0.60300
In313      In  0.14145895  0.18948545  0.48760994     1.36900
C314        C  0.11693356  0.17043783  0.44605612     0.77400
O315        O  0.13499849  0.16350863  0.52134902    -0.61000
O316        O  0.12629300  0.19417485  0.53506346    -0.52000
C317        C  0.18220394  0.18608399  0.49839708     0.70100
O318        O  0.17266130  0.17384991  0.47994419    -0.46800
C319        C  0.13732212  0.22741338  0.46286401     0.74800
O320        O  0.13656964  0.16894468  0.44494307    -0.58700
O321        O  0.12925057  0.22229887  0.48898350    -0.48800
O322        O  0.11003217  0.18087255  0.46909807    -0.55100
C323        C  0.12664722  0.17503353  0.54207134     0.85000
O324        O  0.17077648  0.19975929  0.51112781    -0.57000
O325        O  0.14800390  0.21320017  0.45002832    -0.60300
In326      In  0.04395942  0.36082797  0.29892839     1.36900
C327        C  0.06795929  0.33853433  0.33774274     0.77400
O328        O  0.02176649  0.36370491  0.33974720    -0.61000
O329        O  0.01159334  0.34783564  0.29833056    -0.52000
C330        C  0.04056419  0.40165969  0.28949865     0.70100
O331        O  0.05392465  0.39398323  0.30821381    -0.46800
C332        C  0.05861050  0.34781169  0.24316069     0.74800
O333        O  0.07012080  0.35798282  0.33439563    -0.58700
O334        O  0.04074599  0.34294518  0.25327989    -0.48800
O335        O  0.05353366  0.33078257  0.32120782    -0.55100
C336        C  0.00731345  0.35379819  0.32612273     0.85000
O337        O  0.02943353  0.38838004  0.27543529    -0.57000
O338        O  0.06887258  0.35919799  0.26184288    -0.60300
In339      In  0.86562639  0.26557063  0.48221895     1.36900
C340        C  0.89117582  0.28543208  0.44334126     0.77400
O341        O  0.86786789  0.29294133  0.51495835    -0.61000
O342        O  0.87792755  0.26357270  0.53203398    -0.52000
C343        C  0.82434483  0.26598401  0.48312909     0.70100
O344        O  0.83474875  0.27804938  0.46569127    -0.46800
C345        C  0.87466350  0.22699224  0.46378356     0.74800
O346        O  0.87162383  0.28673776  0.44040779    -0.58700
O347        O  0.87992138  0.23420297  0.49042340    -0.48800
O348        O  0.89722285  0.27448971  0.46631442    -0.55100
C349        C  0.87623576  0.28287129  0.53725963     0.85000
O350        O  0.83524309  0.25412166  0.50031339    -0.57000
O351        O  0.86420010  0.23943667  0.44694308    -0.60300
In352      In  0.96824378  0.10494436  0.28548485     1.36900
C353        C  0.94961240  0.12458883  0.33303948     0.77400
O354        O  0.99743865  0.09853962  0.31310655    -0.61000
O355        O  0.99683683  0.12469378  0.28240232    -0.52000
C356        C  0.96439418  0.06412620  0.27697459     0.70100
O357        O  0.95341247  0.07434522  0.29628859    -0.46800
C358        C  0.95084567  0.11846824  0.23215320     0.74800
O359        O  0.94993536  0.10496546  0.33094656    -0.58700
O360        O  0.97022408  0.11576789  0.23516649    -0.48800
O361        O  0.95844295  0.13394846  0.31053635    -0.55100
C362        C  0.00680006  0.11442426  0.30286755     0.85000
O363        O  0.97773410  0.07488471  0.26232497    -0.57000
O364        O  0.94044198  0.11418601  0.25658802    -0.60300
In365      In  0.35780376  0.77458494  0.98921257     1.36900
C366        C  0.38052571  0.79566227  0.94704985     0.77400
O367        O  0.36551051  0.80148010  0.02059546    -0.61000
O368        O  0.37338206  0.77112891  0.03685263    -0.52000
C369        C  0.31679335  0.77667940  0.99923007     0.70100
O370        O  0.32899878  0.76632582  0.01667951    -0.46800
C371        C  0.36192989  0.73618509  0.96618654     0.74800
O372        O  0.36140846  0.79927253  0.95167685    -0.58700
O373        O  0.37168260  0.74238432  0.99042202    -0.48800
O374        O  0.38787690  0.78115772  0.96387178    -0.55100
C375        C  0.37422868  0.79055351  0.04160186     0.85000
O376        O  0.32572048  0.78614877  0.97684373    -0.57000
O377        O  0.34986161  0.74957343  0.95423681    -0.60300
In378      In  0.62182199  0.69693432  0.98055966     1.36900
C379        C  0.59396378  0.67832097  0.94311003     0.77400
O380        O  0.61630922  0.67167756  0.01537847    -0.61000
O381        O  0.61165917  0.70297435  0.03060351    -0.52000
C382        C  0.66272990  0.69302780  0.98758503     0.70100
O383        O  0.65218779  0.68060480  0.97069858    -0.46800
C384        C  0.61766665  0.73429356  0.95542929     0.74800
O385        O  0.61327648  0.67439237  0.94130560    -0.58700
O386        O  0.60968722  0.72937641  0.98171113    -0.48800
O387        O  0.58920939  0.69144867  0.96417826    -0.55100
C388        C  0.61158506  0.68386836  0.03774620     0.85000
O389        O  0.65218760  0.70742547  0.00019074    -0.57000
O390        O  0.62853743  0.72016244  0.94260628    -0.60300
In391      In  0.44134595  0.60627865  0.78509678     1.36900
C392        C  0.41584208  0.62759035  0.82224026     0.77400
O393        O  0.46346505  0.60539312  0.82594132    -0.61000
O394        O  0.47197677  0.62345861  0.78603995    -0.52000
C395        C  0.44273516  0.56510358  0.77749011     0.70100
O396        O  0.43060356  0.57385445  0.79688939    -0.46800
C397        C  0.42723878  0.61947965  0.72959440     0.74800
O398        O  0.41643841  0.60790067  0.82239564    -0.58700
O399        O  0.44639440  0.61945562  0.73649263    -0.48800
O400        O  0.42821079  0.63614610  0.80306566    -0.55100
C401        C  0.47619593  0.61808201  0.81406758     0.85000
O402        O  0.45434302  0.57744572  0.76243035    -0.57000
O403        O  0.41553372  0.61194791  0.75065711    -0.60300
In404      In  0.52563168  0.86634444  0.78658512     1.36900
C405        C  0.54534907  0.84339959  0.82967854     0.77400
O406        O  0.49861232  0.87342809  0.81883484    -0.61000
O407        O  0.49480834  0.85025587  0.78343070    -0.52000
C408        C  0.53267543  0.90680882  0.77682179     0.70100
O409        O  0.54367839  0.89581224  0.79514769    -0.46800
C410        C  0.54009993  0.85082963  0.73292292     0.74800
O411        O  0.54549173  0.86309269  0.83037488    -0.58700
O412        O  0.52127199  0.85606475  0.73627610    -0.48800
O413        O  0.53447814  0.83569656  0.80772248    -0.55100
C414        C  0.48695436  0.85973806  0.80670992     0.85000
O415        O  0.51796268  0.89702838  0.76374875    -0.57000
O416        O  0.55160489  0.85438634  0.75650901    -0.60300
C417        C  0.59501326  0.78758655  0.93873366    -0.11600
C418        C  0.59392719  0.78679049  0.90559698     0.15000
C419        C  0.60426395  0.77064466  0.88907731     0.01900
C420        C  0.61356966  0.75447355  0.90614914    -0.15900
C421        C  0.61294909  0.75418056  0.93942561    -0.10700
C422        C  0.60470870  0.77160234  0.95582833     0.08600
C423        C  0.58044380  0.80187566  0.88900351     0.09600
S424        S  0.60479718  0.76896258  0.84634340    -0.25100
H425        H  0.62016127  0.74141178  0.89323572     0.19900
S426        S  0.60563652  0.77419230  0.99837941    -0.30700
H427        H  0.58762414  0.80033466  0.95135509     0.10200
C428        C  0.56110940  0.79569553  0.87625361     0.03400
C429        C  0.54969529  0.80982702  0.85778539    -0.13000
C430        C  0.55717926  0.83005916  0.85193715    -0.08700
C431        C  0.57623250  0.83637665  0.86592659     0.06900
C432        C  0.58749417  0.82230674  0.88464665    -0.13800
S433        S  0.55103963  0.76979783  0.88350570    -0.30700
H434        H  0.53497038  0.80502333  0.84754104     0.11100
S435        S  0.58790807  0.86144378  0.85878281    -0.27800
H436        H  0.60237360  0.82696472  0.89457630     0.08300
H437        H  0.62500775  0.76402909  0.00168970     0.26800
H438        H  0.53322641  0.77156440  0.86418765     0.21600
H439        H  0.58545630  0.86019288  0.82565832     0.26900
H440        H  0.60282775  0.79046107  0.84053460     0.15700
C441        C  0.56397488  0.64148323  0.88831944    -0.11600
C442        C  0.54581099  0.65317957  0.88280962     0.15000
C443        C  0.54379523  0.67312117  0.89668143     0.01900
C444        C  0.55971826  0.68072695  0.91617104    -0.15900
C445        C  0.57789127  0.66901769  0.92208411    -0.10700
C446        C  0.57991819  0.64907266  0.90795921     0.08600
C447        C  0.52849762  0.64357952  0.86475153     0.09600
S448        S  0.52122004  0.68954969  0.89067426    -0.25100
H449        H  0.55794080  0.69608937  0.92660792     0.19900
S450        S  0.60167311  0.63198591  0.91561831    -0.30700
H451        H  0.56539174  0.62601081  0.87813553     0.10200
C452        C  0.52932861  0.64114948  0.83155592     0.03400
C453        C  0.51211605  0.63267476  0.81546898    -0.13000
C454        C  0.49409634  0.62659005  0.83196662    -0.08700
C455        C  0.49326717  0.62944958  0.86525081     0.06900
C456        C  0.51056737  0.63749063  0.88122234    -0.13800
S457        S  0.55192690  0.64967360  0.80964336    -0.30700
H458        H  0.51264023  0.63089572  0.78991689     0.11100
S459        S  0.47013883  0.62469915  0.88846778    -0.27800
H460        H  0.50981237  0.63969665  0.90671987     0.08300
H461        H  0.60217452  0.63614160  0.94838851     0.26800
H462        H  0.54613947  0.64073518  0.78045790     0.21600
H463        H  0.45653434  0.63441450  0.86676488     0.26900
H464        H  0.51633945  0.68220597  0.86013638     0.15700
C465        C  0.35720274  0.68907441  0.91227832    -0.11600
C466        C  0.37770091  0.68144893  0.91343848     0.15000
C467        C  0.39204704  0.69033456  0.93499730     0.01900
C468        C  0.38571795  0.70692227  0.95426020    -0.15900
C469        C  0.36567695  0.71559220  0.95145487    -0.10700
C470        C  0.35098729  0.70591997  0.93117799     0.08600
C471        C  0.38428930  0.66591468  0.88958391     0.09600
S472        S  0.41908734  0.68249838  0.93735308    -0.25100
H473        H  0.39712386  0.71418969  0.96968085     0.19900
S474        S  0.32422027  0.71437029  0.92805300    -0.30700
H475        H  0.34613321  0.68217580  0.89592903     0.10200
C476        C  0.39053019  0.64556011  0.89794691     0.03400
C477        C  0.39976238  0.63271755  0.87492838    -0.13000
C478        C  0.40251837  0.63982365  0.84373730    -0.08700
C479        C  0.39437298  0.65945717  0.83485097     0.06900
C480        C  0.38561720  0.67238369  0.85792668    -0.13800
S481        S  0.38729935  0.63620256  0.93799665    -0.30700
H482        H  0.40578054  0.61755075  0.88160317     0.11100
S483        S  0.39458833  0.66885863  0.79455102    -0.27800
H484        H  0.38027502  0.68783554  0.85133101     0.08300
H485        H  0.32241312  0.72010919  0.96016003     0.26800
H486        H  0.39346645  0.61548932  0.93200147     0.21600
H487        H  0.39202022  0.64904398  0.78072891     0.26900
H488        H  0.42157718  0.67773590  0.90503728     0.15700
C489        C  0.39857064  0.82840111  0.87666597    -0.11600
C490        C  0.42001668  0.82968665  0.88277376     0.15000
C491        C  0.42824142  0.82035218  0.91039752     0.01900
C492        C  0.41501616  0.80938567  0.93075493    -0.15900
C493        C  0.39356783  0.80759067  0.92442581    -0.10700
C494        C  0.38533407  0.81722780  0.89691140     0.08600
C495        C  0.43402099  0.83821024  0.85817981     0.09600
S496        S  0.45567677  0.82104032  0.92010208    -0.25100
H497        H  0.42157861  0.80218859  0.95177248     0.19900
S498        S  0.35855012  0.81433230  0.88478734    -0.30700
H499        H  0.39232113  0.83515604  0.85512006     0.10200
C500        C  0.44504880  0.82463420  0.83793507     0.03400
C501        C  0.46119287  0.83251581  0.81916453    -0.13000
C502        C  0.46665936  0.85370334  0.82043767    -0.08700
C503        C  0.45418989  0.86761457  0.83832170     0.06900
C504        C  0.43804107  0.85970308  0.85718838    -0.13800
S505        S  0.43944623  0.79700849  0.83765737    -0.30700
H506        H  0.47053534  0.82184411  0.80516477     0.11100
S507        S  0.45832922  0.89542337  0.83834094    -0.27800
H508        H  0.42918465  0.87020602  0.87221273     0.08300
H509        H  0.35777680  0.79285599  0.89166336     0.26800
H510        H  0.45371319  0.79149306  0.81373541     0.21600
H511        H  0.46556716  0.89633052  0.80686531     0.26900
H512        H  0.45975866  0.84060448  0.90648077     0.15700
C513        C  0.88333456  0.17982201  0.41134679    -0.11600
C514        C  0.90247395  0.17261299  0.42326166     0.15000
C515        C  0.91028127  0.18106688  0.45181255     0.01900
C516        C  0.90003470  0.19797187  0.46580821    -0.15900
C517        C  0.88180099  0.20637046  0.45239634    -0.10700
C518        C  0.87263030  0.19618537  0.42610823     0.08600
C519        C  0.91536554  0.15886668  0.40297893     0.09600
S520        S  0.93375653  0.17163770  0.47065097    -0.25100
H521        H  0.90699250  0.20524241  0.48648585     0.19900
S522        S  0.84750890  0.20332913  0.41021327    -0.30700
H523        H  0.87704390  0.17314715  0.38972384     0.10200
C524        C  0.90874350  0.13881843  0.39364951     0.03400
C525        C  0.92081265  0.12741398  0.37192261    -0.13000
C526        C  0.93918697  0.13580573  0.35911331    -0.08700
C527        C  0.94627107  0.15546120  0.36978061     0.06900
C528        C  0.93415292  0.16684891  0.39113840    -0.13800
S529        S  0.88497299  0.12780740  0.40927600    -0.30700
H530        H  0.91553718  0.11223289  0.36400490     0.11100
S531        S  0.97071028  0.16677894  0.35747071    -0.27800
H532        H  0.93931334  0.18223851  0.39838545     0.08300
H533        H  0.83882241  0.20845209  0.43987920     0.26800
H534        H  0.88460406  0.11005664  0.38962835     0.21600
H535        H  0.98164146  0.14771540  0.35644354     0.26900
H536        H  0.93286761  0.15136050  0.45795293     0.15700
C537        C  0.95218189  0.33484277  0.34163257    -0.11600
C538        C  0.95286143  0.33188063  0.37452615     0.15000
C539        C  0.97055061  0.33850693  0.39172668     0.01900
C540        C  0.98774362  0.34651296  0.37544864    -0.15900
C541        C  0.98754767  0.34849402  0.34226903    -0.10700
C542        C  0.96910108  0.34353495  0.32546600     0.08600
C543        C  0.93610280  0.31973806  0.38981147     0.09600
S544        S  0.97235811  0.33645800  0.43432649    -0.25100
H545        H  0.00162653  0.35054271  0.38875331     0.19900
S546        S  0.96601445  0.34815357  0.28359882    -0.30700
H547        H  0.93851509  0.33002309  0.32841308     0.10200
C548        C  0.91555913  0.32739874  0.39278591     0.03400
C549        C  0.90070512  0.31549931  0.40919964    -0.13000
C550        C  0.90604518  0.29604398  0.42223755    -0.08700
C551        C  0.92624350  0.28783507  0.41702559     0.06900
C552        C  0.94107658  0.29989418  0.40143042    -0.13800
S553        S  0.90859275  0.35270263  0.37720799    -0.30700
H554        H  0.88517921  0.32172007  0.41299821     0.11100
S555        S  0.93395450  0.26188840  0.42888394    -0.27800
H556        H  0.95669682  0.29371047  0.39813554     0.08300
H557        H  0.97725613  0.36699969  0.28377840     0.26800
H558        H  0.88707995  0.35127765  0.38338455     0.21600
H559        H  0.91452061  0.25270147  0.42208415     0.26900
H560        H  0.95086425  0.33871938  0.44012245     0.15700
C561        C  0.11704363  0.28199985  0.44577241    -0.11600
C562        C  0.11814446  0.28213895  0.41259722     0.15000
C563        C  0.12865242  0.26585265  0.39675498     0.01900
C564        C  0.13600560  0.24877895  0.41408183    -0.15900
C565        C  0.13339081  0.24771157  0.44714620    -0.10700
C566        C  0.12489031  0.26515898  0.46325826     0.08600
C567        C  0.10513030  0.29723994  0.39501841     0.09600
S568        S  0.13148112  0.26514723  0.35423632    -0.25100
H569        H  0.14280354  0.23575712  0.40133601     0.19900
S570        S  0.12318058  0.26680242  0.50583276    -0.30700
H571        H  0.10925009  0.29468000  0.45800097     0.10200
C572        C  0.08455598  0.29204198  0.38652650     0.03400
C573        C  0.07268752  0.30613076  0.36868748    -0.13000
C574        C  0.08090455  0.32544423  0.35909951    -0.08700
C575        C  0.10139803  0.33084404  0.36861490     0.06900
C576        C  0.11328794  0.31667622  0.38640945    -0.13800
S577        S  0.07356849  0.26717616  0.39783362    -0.30700
H578        H  0.05699059  0.30191362  0.36177078     0.11100
S579        S  0.11374941  0.35483164  0.35710379    -0.27800
H580        H  0.12912045  0.32063045  0.39306813     0.08300
H581        H  0.14246119  0.25685558  0.51120740     0.26800
H582        H  0.05319071  0.27110870  0.38694905     0.21600
H583        H  0.09884952  0.36726911  0.37276636     0.26900
H584        H  0.13332789  0.28684152  0.35043707     0.15700
C585        C  0.09315241  0.15313793  0.36783854    -0.11600
C586        C  0.07388292  0.14543747  0.37810654     0.15000
C587        C  0.06901204  0.14561526  0.41075196     0.01900
C588        C  0.08362514  0.15329027  0.43239131    -0.15900
C589        C  0.10285845  0.16124557  0.42219883    -0.10700
C590        C  0.10753139  0.16136921  0.38943545     0.08600
C591        C  0.05888415  0.13773111  0.35437352     0.09600
S592        S  0.04445937  0.13639781  0.42629056    -0.25100
H593        H  0.07980897  0.15333705  0.45746388     0.19900
S594        S  0.13075897  0.17319010  0.37358279    -0.30700
H595        H  0.09671923  0.15332903  0.34268060     0.10200
C596        C  0.04516568  0.15152095  0.33881355     0.03400
C597        C  0.02934082  0.14339622  0.31958652    -0.13000
C598        C  0.02672521  0.12175739  0.31618959    -0.08700
C599        C  0.04144113  0.10806744  0.33002277     0.06900
C600        C  0.05729253  0.11620722  0.34915544    -0.13800
S601        S  0.04654967  0.17928975  0.34594216    -0.30700
H602        H  0.01801836  0.15390067  0.30911239     0.11100
S603        S  0.04066070  0.08018260  0.32454090    -0.27800
H604        H  0.06811047  0.10567983  0.36079842     0.08300
H605        H  0.12990985  0.19079604  0.39353822     0.26800
H606        H  0.02997012  0.18504131  0.32586358     0.21600
H607        H  0.03212483  0.08099328  0.29380686     0.26900
H608        H  0.03209712  0.14165898  0.39996688     0.15700
C609        C  0.76345917  0.70159534  0.99288790    -0.11600
C610        C  0.75122204  0.68846094  0.01165856     0.15000
C611        C  0.76068717  0.67641933  0.03564577     0.01900
C612        C  0.78213499  0.67820309  0.04083101    -0.15900
C613        C  0.79451855  0.69161731  0.02240941    -0.10700
C614        C  0.78495242  0.70318972  0.99768835     0.08600
C615        C  0.72849023  0.68874189  0.00668629     0.09600
S616        S  0.74620279  0.65912685  0.06112921    -0.25100
H617        H  0.78913863  0.66916002  0.05978508     0.19900
S618        S  0.79901914  0.72011741  0.97122530    -0.30700
H619        H  0.75611728  0.71081207  0.97438259     0.10200
C620        C  0.71550652  0.70143835  0.02538742     0.03400
C621        C  0.69414704  0.70238208  0.01861478    -0.13000
C622        C  0.68548254  0.69107052  0.99316541    -0.08700
C623        C  0.69874803  0.67842635  0.97435772     0.06900
C624        C  0.72002746  0.67724775  0.98154574    -0.13800
S625        S  0.72628816  0.71695203  0.05723277    -0.30700
H626        H  0.68419351  0.71212470  0.03314315     0.11100
S627        S  0.68992435  0.66429884  0.93996738    -0.27800
H628        H  0.73019438  0.66775138  0.96693230     0.08300
H629        H  0.81428783  0.70502591  0.96402609     0.26800
H630        H  0.70719307  0.72451624  0.06902203     0.21600
H631        H  0.67930499  0.68156009  0.92704329     0.26900
H632        H  0.73025381  0.65451163  0.03937611     0.15700
C633        C  0.94362344  0.00853320  0.27784802    -0.11600
C634        C  0.96049619  0.99767388  0.26467817     0.15000
C635        C  0.97825981  0.00876934  0.25451308     0.01900
C636        C  0.97902939  0.03038138  0.25878610    -0.15900
C637        C  0.96221243  0.04136114  0.27222609    -0.10700
C638        C  0.94410802  0.03021062  0.28125779     0.08600
C639        C  0.95860085  0.97492293  0.26043870     0.09600
S640        S  0.00042182  0.99638167  0.23589606    -0.25100
H641        H  0.99292809  0.03867275  0.25150333     0.19900
S642        S  0.92074293  0.04257162  0.29591062    -0.30700
H643        H  0.92978566  0.00005242  0.28495204     0.10200
C644        C  0.97015904  0.96073601  0.27888743     0.03400
C645        C  0.96856562  0.93931927  0.27253907    -0.13000
C646        C  0.95538402  0.93174989  0.24838459    -0.08700
C647        C  0.94342054  0.94622096  0.23055536     0.06900
C648        C  0.94509627  0.96751753  0.23695635    -0.13800
S649        S  0.98636272  0.96990010  0.31108375    -0.30700
H650        H  0.97747989  0.92842135  0.28675517     0.11100
S651        S  0.92590981  0.93886142  0.19908355    -0.27800
H652        H  0.93610651  0.97853247  0.22297376     0.08300
H653        H  0.92075337  0.05832094  0.27266647     0.26800
H654        H  0.99470599  0.95035804  0.31950318     0.21600
H655        H  0.94135768  0.92773550  0.18239537     0.26900
H656        H  0.98945222  0.97978925  0.22191802     0.15700
C657        C  0.91949482  0.80291036  0.13337855    -0.11600
C658        C  0.89778664  0.80483099  0.13039511     0.15000
C659        C  0.88742417  0.82149751  0.14570487     0.01900
C660        C  0.89880024  0.83515380  0.16501489    -0.15900
C661        C  0.92038681  0.83267308  0.16901921    -0.10700
C662        C  0.93093194  0.81685425  0.15196176     0.08600
C663        C  0.88634018  0.78821339  0.11336609     0.09600
S664        S  0.85972836  0.82583522  0.14199405    -0.25100
H665        H  0.89064719  0.84740313  0.17774997     0.19900
S666        S  0.95893979  0.81384752  0.15256345    -0.30700
H667        H  0.92756301  0.79027330  0.12139097     0.10200
C668        C  0.88901196  0.78483779  0.08063289     0.03400
C669        C  0.87962468  0.76748454  0.06630043    -0.13000
C670        C  0.86759276  0.75334357  0.08402355    -0.08700
C671        C  0.86373452  0.75775400  0.11645349     0.06900
C672        C  0.87344834  0.77485013  0.13078931    -0.13800
S673        S  0.90463654  0.80245158  0.05719706    -0.30700
H674        H  0.88244322  0.76447156  0.04142370     0.11100
S675        S  0.84686915  0.74226854  0.14113125    -0.27800
H676        H  0.87116878  0.77762792  0.15590697     0.08300
H677        H  0.96324350  0.83532095  0.15482255     0.26800
H678        H  0.90181975  0.79231428  0.02790573     0.21600
H679        H  0.83119324  0.74052387  0.11788644     0.26900
H680        H  0.85788629  0.81748937  0.11126010     0.15700
C681        C  0.03600983  0.50430653  0.28471629    -0.11600
C682        C  0.03406633  0.48947327  0.26046587     0.15000
C683        C  0.03080634  0.49624037  0.22896039     0.01900
C684        C  0.02932969  0.51762950  0.22256819    -0.15900
C685        C  0.03131912  0.53249713  0.24686238    -0.10700
C686        C  0.03519979  0.52565545  0.27819872     0.08600
C687        C  0.03579873  0.46712584  0.26885132     0.09600
S688        S  0.02837834  0.47846630  0.19594540    -0.25100
H689        H  0.02648525  0.52269527  0.19841902     0.19900
S690        S  0.04052712  0.54327568  0.31055466    -0.30700
H691        H  0.03876351  0.49916797  0.30886560     0.10200
C692        C  0.05496604  0.45837660  0.27856182     0.03400
C693        C  0.05603834  0.43704969  0.28591391    -0.13000
C694        C  0.03826719  0.42433474  0.28402148    -0.08700
C695        C  0.01889133  0.43343062  0.27562475     0.06900
C696        C  0.01794444  0.45458953  0.26764322    -0.13800
S697        S  0.07819834  0.47425117  0.28055764    -0.30700
H698        H  0.07085849  0.43014564  0.29244300     0.11100
S699        S  0.99465508  0.41919575  0.27615589    -0.27800
H700        H  0.00311417  0.46144800  0.26096969     0.08300
H701        H  0.05295111  0.55685199  0.29241231     0.26800
H702        H  0.09180724  0.45844503  0.29099587     0.21600
H703        H  0.99946961  0.40779999  0.30374801     0.26900
H704        H  0.04107694  0.46257876  0.20845921     0.15700
C705        C  0.93192387  0.62377801  0.19814252    -0.11600
C706        C  0.92925022  0.62104743  0.16544109     0.15000
C707        C  0.94310017  0.60801850  0.14858814     0.01900
C708        C  0.96045715  0.59969934  0.16409881    -0.15900
C709        C  0.96428350  0.60387789  0.19630177    -0.10700
C710        C  0.94902120  0.61494955  0.21391489     0.08600
C711        C  0.91487808  0.63511175  0.14847459     0.09600
S712        S  0.94065299  0.60304359  0.10661049    -0.25100
H713        H  0.97170957  0.59093167  0.15026902     0.19900
S714        S  0.95063461  0.61892141  0.25613714    -0.30700
H715        H  0.92112065  0.63359017  0.21117059     0.10200
C716        C  0.89393940  0.62995710  0.14246329     0.03400
C717        C  0.88192462  0.64304510  0.12293587    -0.13000
C718        C  0.89052099  0.66125334  0.10974958    -0.08700
C719        C  0.91108246  0.66714377  0.11808027     0.06900
C720        C  0.92307228  0.65382349  0.13696466    -0.13800
S721        S  0.88296483  0.60631166  0.15847745    -0.30700
H722        H  0.86606303  0.63874224  0.11709303     0.11100
S723        S  0.92224286  0.69172884  0.10563554    -0.27800
H724        H  0.93908806  0.65775761  0.14245559     0.08300
H725        H  0.95855630  0.59883246  0.26232998     0.26800
H726        H  0.86320919  0.60834081  0.14424569     0.21600
H727        H  0.94083832  0.69031809  0.12324669     0.26900
H728        H  0.91897288  0.60590652  0.10472278     0.15700
C729        C  0.21459965  0.77038027  0.99074314    -0.11600
C730        C  0.22726754  0.77446073  0.01713557     0.15000
C731        C  0.21790560  0.77792049  0.04700355     0.01900
C732        C  0.19622624  0.77640557  0.05001740    -0.15900
C733        C  0.18352952  0.77182755  0.02378281    -0.10700
C734        C  0.19282610  0.76915409  0.99364371     0.08600
C735        C  0.25018269  0.77484321  0.01270147     0.09600
S736        S  0.23267887  0.78422317  0.08218073    -0.25100
H737        H  0.18921538  0.77871929  0.07314386     0.19900
S738        S  0.17714076  0.76515369  0.95849728    -0.30700
H739        H  0.22188790  0.76806207  0.96784134     0.10200
C740        C  0.26303785  0.75865049  0.02406679     0.03400
C741        C  0.28471791  0.75989954  0.01985701    -0.13000
C742        C  0.29387054  0.77696076  0.00421878    -0.08700
C743        C  0.28081301  0.79317455  0.99286426     0.06900
C744        C  0.25917356  0.79179737  0.99687772    -0.13800
S745        S  0.25177245  0.73603249  0.04293481    -0.30700
H746        H  0.29453552  0.74729951  0.02816765     0.11100
S747        S  0.29066134  0.81641415  0.97418127    -0.27800
H748        H  0.24927219  0.80427386  0.98825086     0.08300
H749        H  0.19356595  0.76562031  0.93642498     0.26800
H750        H  0.27070359  0.72620382  0.05089469     0.21600
H751        H  0.30714704  0.81903487  0.99587774     0.26900
H752        H  0.24945258  0.79391658  0.06669441     0.15700
C753        C  0.08246281  0.67797855  0.07056941    -0.11600
C754        C  0.08985889  0.67313787  0.10091958     0.15000
C755        C  0.10693549  0.68415058  0.11353039     0.01900
C756        C  0.11485711  0.70124208  0.09702384    -0.15900
C757        C  0.10638929  0.70730374  0.06765883    -0.10700
C758        C  0.09088213  0.69462058  0.05345643     0.08600
C759        C  0.07772447  0.65862205  0.12055882     0.09600
S760        S  0.11826613  0.67804234  0.15158266    -0.25100
H761        H  0.12707335  0.71038167  0.10796945     0.19900
S762        S  0.08079117  0.69890389  0.01410139    -0.30700
H763        H  0.06962460  0.66918187  0.06063829     0.10200
C764        C  0.06347098  0.66631606  0.14308153     0.03400
C765        C  0.05256933  0.65227600  0.16211188    -0.13000
C766        C  0.05538482  0.63062373  0.15891820    -0.08700
C767        C  0.06914739  0.62296817  0.13535157     0.06900
C768        C  0.08028132  0.63708104  0.11658441    -0.13800
S769        S  0.05915443  0.69405642  0.14763019    -0.30700
H770        H  0.04208381  0.65827985  0.18007155     0.11100
S771        S  0.07280604  0.59559928  0.12737481    -0.27800
H772        H  0.09099252  0.63127466  0.09874263     0.08300
H773        H  0.10048227  0.70327852  0.00096526     0.26800
H774        H  0.04250007  0.69266669  0.16922736     0.21600
H775        H  0.05150564  0.59066587  0.13013281     0.26900
H776        H  0.11365832  0.65661524  0.15072330     0.15700
C777        C  0.07610053  0.82530744  0.14144016    -0.11600
C778        C  0.05597990  0.81729841  0.14603242     0.15000
C779        C  0.05002587  0.79877833  0.13033621     0.01900
C780        C  0.06415480  0.78889416  0.11011395    -0.15900
C781        C  0.08405927  0.79722301  0.10455927    -0.10700
C782        C  0.09017530  0.81552733  0.12080672     0.08600
C783        C  0.04106314  0.82931808  0.16550812     0.09600
S784        S  0.02452876  0.78712467  0.13429717    -0.25100
H785        H  0.05937023  0.77476739  0.09807123     0.19900
S786        S  0.11513781  0.82783080  0.11514528    -0.30700
H787        H  0.08062595  0.83957452  0.15331609     0.10200
C788        C  0.03369705  0.82177347  0.19471748     0.03400
C789        C  0.01759946  0.83246814  0.21019102    -0.13000
C790        C  0.00858137  0.85050593  0.19699748    -0.08700
C791        C  0.01691891  0.85874502  0.16857631     0.06900
C792        C  0.03313553  0.84804089  0.15325475    -0.13800
S793        S  0.04438257  0.79822811  0.21183598    -0.30700
H794        H  0.01137340  0.82615319  0.23201244     0.11100
S795        S  0.00723087  0.88273925  0.15143427    -0.27800
H796        H  0.03925294  0.85384174  0.13103078     0.08300
H797        H  0.11483846  0.82589219  0.08191078     0.26800
H798        H  0.03183369  0.79801682  0.23918372     0.21600
H799        H  0.01865483  0.88172770  0.12300116     0.26900
H800        H  0.01340064  0.80585751  0.13824309     0.15700
C801        C  0.27867333  0.20599152  0.53200282    -0.11600
C802        C  0.27008284  0.18593913  0.52957880     0.15000
C803        C  0.28309660  0.16838903  0.53423321     0.01900
C804        C  0.30432431  0.17133540  0.54084061    -0.15900
C805        C  0.31296628  0.19142708  0.54319794    -0.10700
C806        C  0.29973368  0.20894991  0.53931570     0.08600
C807        C  0.24748312  0.18421898  0.52247342     0.09600
S808        S  0.27379915  0.14187675  0.53183445    -0.25100
H809        H  0.31425155  0.15775520  0.54364997     0.19900
S810        S  0.30840024  0.23548222  0.54438873    -0.30700
H811        H  0.26872853  0.21951844  0.52867048     0.10200
C812        C  0.23249826  0.19187855  0.54397801     0.03400
C813        C  0.21143616  0.19216199  0.53527083    -0.13000
C814        C  0.20478850  0.18464842  0.50564929    -0.08700
C815        C  0.21979646  0.17634644  0.48443438     0.06900
C816        C  0.24094040  0.17620322  0.49310953    -0.13800
S817        S  0.24012805  0.20094139  0.58290029    -0.30700
H818        H  0.20000497  0.19818631  0.55181990     0.11100
S819        S  0.21325418  0.16671729  0.44553055    -0.27800
H820        H  0.25246228  0.17039950  0.47647940     0.08300
H821        H  0.32107016  0.23105595  0.57082309     0.26800
H822        H  0.22003174  0.20615415  0.59373707     0.21600
H823        H  0.19976345  0.18339696  0.43830032     0.26900
H824        H  0.25298503  0.14604835  0.54012260     0.15700
C825        C  0.47044917  0.46774797  0.77592945    -0.11600
C826        C  0.45149627  0.47595810  0.76500791     0.15000
C827        C  0.43733663  0.46287392  0.74894073     0.01900
C828        C  0.44256240  0.44194158  0.74376194    -0.15900
C829        C  0.46158051  0.43359728  0.75461993    -0.10700
C830        C  0.47575011  0.44685014  0.77066024     0.08600
C831        C  0.44787901  0.49861339  0.76827113     0.09600
S832        S  0.41242981  0.47196001  0.73446737    -0.25100
H833        H  0.43148026  0.43200887  0.73157698     0.19900
S834        S  0.50129049  0.43855473  0.78338087    -0.30700
H835        H  0.48150138  0.47791225  0.78772330     0.10200
C836        C  0.44197670  0.50761851  0.79739161     0.03400
C837        C  0.43979986  0.52936869  0.79959517    -0.13000
C838        C  0.44351125  0.54223909  0.77322902    -0.08700
C839        C  0.44861709  0.53297224  0.74377874     0.06900
C840        C  0.45097873  0.51134091  0.74175000    -0.13800
S841        S  0.43722305  0.49136366  0.83157504    -0.30700
H842        H  0.43573361  0.53641966  0.82212381     0.11100
S843        S  0.45165701  0.54773369  0.70771874    -0.27800
H844        H  0.45522208  0.50431561  0.71924845     0.08300
H845        H  0.50577916  0.42783081  0.75503506     0.26800
H846        H  0.43070153  0.50746424  0.85201063     0.21600
H847        H  0.43515137  0.56162358  0.71417106     0.26900
H848        H  0.40951635  0.48756092  0.75750776     0.15700
C849        C  0.44766641  0.30184228  0.63794359    -0.11600
C850        C  0.42704803  0.30571061  0.62850373     0.15000
C851        C  0.41726442  0.32451566  0.63753758     0.01900
C852        C  0.42765111  0.33825678  0.65790185    -0.15900
C853        C  0.44782272  0.33378017  0.66901069    -0.10700
C854        C  0.45828654  0.31582901  0.65759731     0.08600
C855        C  0.41539758  0.28873662  0.61280620     0.09600
S856        S  0.39134286  0.33137704  0.62459312    -0.25100
H857        H  0.41960582  0.35216995  0.66603603     0.19900
S858        S  0.48508824  0.30991763  0.66715575    -0.30700
H859        H  0.45535361  0.28753693  0.63057608     0.10200
C860        C  0.41952698  0.28273311  0.58136294     0.03400
C861        C  0.40970388  0.26500598  0.56889877    -0.13000
C862        C  0.39589350  0.25299462  0.58730356    -0.08700
C863        C  0.39121156  0.25971097  0.61856606     0.06900
C864        C  0.40089149  0.27752154  0.63075345    -0.13800
S865        S  0.43732800  0.29763132  0.55721157    -0.30700
H866        H  0.41322315  0.26021957  0.54485786     0.11100
S867        S  0.37393361  0.24594456  0.64484111    -0.27800
H868        H  0.39773502  0.28223104  0.65499477     0.08300
H869        H  0.49171689  0.33084311  0.66759355     0.26800
H870        H  0.43419976  0.28641172  0.52891355     0.21600
H871        H  0.38556374  0.22731669  0.64325220     0.26900
H872        H  0.39253671  0.32088665  0.59532479     0.15700
C873        C  0.52729389  0.96402291  0.75343706    -0.11600
C874        C  0.54741515  0.97136454  0.75990646     0.15000
C875        C  0.56270941  0.95743185  0.77134903     0.01900
C876        C  0.55739925  0.93656143  0.77672503    -0.15900
C877        C  0.53710483  0.92916439  0.77087192    -0.10700
C878        C  0.52188325  0.94324052  0.75915616     0.08600
C879        C  0.55109656  0.99404169  0.75783668     0.09600
S880        S  0.58910548  0.96534587  0.78010341    -0.25100
H881        H  0.56929731  0.92599070  0.78545817     0.19900
S882        S  0.49496650  0.93624425  0.75310978    -0.30700
H883        H  0.51545005  0.97482922  0.74520545     0.10200
C884        C  0.55433943  0.00404066  0.72854952     0.03400
C885        C  0.55617639  0.02582702  0.72770644    -0.13000
C886        C  0.55456826  0.03775970  0.75554828    -0.08700
C887        C  0.55207588  0.02757248  0.78499277     0.06900
C888        C  0.55021287  0.00586390  0.78576572    -0.13800
S889        S  0.55597387  0.98905926  0.69234865    -0.30700
H890        H  0.55816454  0.03366764  0.70517820     0.11100
S891        S  0.55157144  0.04128436  0.82235619    -0.27800
H892        H  0.54790032  0.99809067  0.80830896     0.08300
H893        H  0.49321865  0.92569366  0.78224145     0.26800
H894        H  0.55839139  0.00610118  0.67168440     0.21600
H895        H  0.56623936  0.05649639  0.81347789     0.26900
H896        H  0.58970498  0.98256943  0.75954986     0.15700
C897        C  0.47134647  0.11505071  0.66015991    -0.11600
C898        C  0.46078299  0.13238747  0.67259996     0.15000
C899        C  0.46623929  0.13989178  0.70295030     0.01900
C900        C  0.48320860  0.13105289  0.71900062    -0.15900
C901        C  0.49474864  0.11454726  0.70569150    -0.10700
C902        C  0.48799802  0.10584426  0.67654200     0.08600
C903        C  0.44554385  0.14340349  0.65214731     0.09600
S904        S  0.45286297  0.16140243  0.72167852    -0.25100
H905        H  0.48792609  0.13773992  0.74148341     0.19900
S906        S  0.49991680  0.08316693  0.65878429    -0.30700
H907        H  0.46690456  0.10897117  0.63714681     0.10200
C908        C  0.45099219  0.16202551  0.63650699     0.03400
C909        C  0.43645291  0.17170023  0.61646154    -0.13000
C910        C  0.41649393  0.16322126  0.61165052    -0.08700
C911        C  0.41116960  0.14442253  0.62721729     0.06900
C912        C  0.42571364  0.13477895  0.64731730    -0.13800
S913        S  0.47662319  0.17326444  0.64163035    -0.30700
H914        H  0.44060972  0.18608728  0.60459295     0.11100
S915        S  0.38656226  0.13145778  0.62136041    -0.27800
H916        H  0.42165698  0.12028914  0.65900058     0.08300
H917        H  0.50300298  0.07273772  0.68777769     0.26800
H918        H  0.47391924  0.19009100  0.62063038     0.21600
H919        H  0.38573391  0.13526679  0.58852936     0.26900
H920        H  0.43347466  0.15801509  0.70697524     0.15700
C921        C  0.76680643  0.27622601  0.46643939    -0.11600
C922        C  0.75786012  0.26746024  0.49360648     0.15000
C923        C  0.77056609  0.25698213  0.51575862     0.01900
C924        C  0.79206550  0.25649165  0.51114476    -0.15900
C925        C  0.80131854  0.26588630  0.48459540    -0.10700
C926        C  0.78835418  0.27529509  0.46139509     0.08600
C927        C  0.73542942  0.27041019  0.49919269     0.09600
S928        S  0.76054294  0.24464019  0.55106840    -0.25100
H929        H  0.80168966  0.24898367  0.52896631     0.19900
S930        S  0.79805395  0.28599384  0.42478996    -0.30700
H931        H  0.75691641  0.28396327  0.44916986     0.10200
C932        C  0.72821044  0.28571400  0.52044372     0.03400
C933        C  0.70683983  0.28717095  0.52675657    -0.13000
C934        C  0.69247474  0.27368180  0.51211164    -0.08700
C935        C  0.69990046  0.25873967  0.48991895     0.06900
C936        C  0.72127793  0.25721514  0.48394382    -0.13800
S937        S  0.74630058  0.30325023  0.53966148    -0.30700
H938        H  0.70136582  0.29868301  0.54364673     0.11100
S939        S  0.68321342  0.24119238  0.46825229    -0.27800
H940        H  0.72698794  0.24552989  0.46746256     0.08300
H941        H  0.81163376  0.26915959  0.41880878     0.26800
H942        H  0.73151909  0.31395896  0.55821656     0.21600
H943        H  0.66951479  0.25711396  0.45840566     0.26900
H944        H  0.74017695  0.24108855  0.54008548     0.15700
C945        C  0.56043278  0.36445906  0.67473739    -0.11600
C946        C  0.56835093  0.34491929  0.68351686     0.15000
C947        C  0.56064199  0.33509141  0.71100710     0.01900
C948        C  0.54315638  0.34343674  0.72625674    -0.15900
C949        C  0.53358518  0.36176965  0.71514909    -0.10700
C950        C  0.54343981  0.37323377  0.69075537     0.08600
C951        C  0.58058257  0.33309054  0.65991721     0.09600
S952        S  0.57118350  0.31081035  0.72557554    -0.25100
H953        H  0.53616387  0.33472314  0.74554745     0.19900
S954        S  0.53470243  0.39870811  0.67843552    -0.30700
H955        H  0.56670742  0.37232840  0.65406512     0.10200
C956        C  0.57050166  0.31846838  0.64031834     0.03400
C957        C  0.58201086  0.30757827  0.61761880    -0.13000
C958        C  0.60347977  0.31108296  0.61349600    -0.08700
C959        C  0.61352026  0.32607572  0.63298603     0.06900
C960        C  0.60196496  0.33682867  0.65610250    -0.13800
S961        S  0.54272878  0.31397299  0.64365024    -0.30700
H962        H  0.57408986  0.29627377  0.60287535     0.11100
S963        S  0.64070179  0.33261250  0.62928963    -0.27800
H964        H  0.60959102  0.34830625  0.67096065     0.08300
H965        H  0.52782615  0.40479304  0.70877776     0.26800
H966        H  0.54106490  0.29905267  0.61930163     0.21600
H967        H  0.63939937  0.33617432  0.59642091     0.26900
H968        H  0.59119936  0.31339932  0.71255972     0.15700
C969        C  0.60508683  0.18523827  0.58672051    -0.11600
C970        C  0.61006107  0.18410891  0.61901897     0.15000
C971        C  0.62256552  0.19970577  0.63285963     0.01900
C972        C  0.62854196  0.21688522  0.61479743    -0.15900
C973        C  0.62258338  0.21880604  0.58285858    -0.10700
C974        C  0.61163065  0.20216144  0.56829520     0.08600
C975        C  0.59992855  0.16815896  0.63879933     0.09600
S976        S  0.62991196  0.19941792  0.67414959    -0.25100
H977        H  0.63720368  0.22926111  0.62630715     0.19900
S978        S  0.60551708  0.20145696  0.52660549    -0.30700
H979        H  0.59568897  0.17308649  0.57600256     0.10200
C980        C  0.58104721  0.17270699  0.65429757     0.03400
C981        C  0.57284911  0.15831341  0.67570628    -0.13000
C982        C  0.58323942  0.13950999  0.68242721    -0.08700
C983        C  0.60207044  0.13482896  0.66635676     0.06900
C984        C  0.60997995  0.14904662  0.64421217    -0.13800
S985        S  0.56762146  0.19713179  0.64745554    -0.30700
H986        H  0.55827604  0.16184533  0.68751413     0.11100
S987        S  0.61749321  0.11193510  0.67452413    -0.27800
H988        H  0.62463532  0.14574183  0.63242322     0.08300
H989        H  0.62514674  0.20906277  0.51719615     0.26800
H990        H  0.55020789  0.19304894  0.66674901     0.21600
H991        H  0.61489140  0.11315843  0.70760336     0.26900
H992        H  0.63258208  0.17770994  0.67622060     0.15700
C993        C  0.57272899  0.13683426  0.88496186    -0.11600
C994        C  0.59273611  0.14559034  0.88349027     0.15000
C995        C  0.60445921  0.14371704  0.85534486     0.01900
C996        C  0.59592691  0.13330399  0.82928714    -0.15900
C997        C  0.57576903  0.12482477  0.83040173    -0.10700
C998        C  0.56422161  0.12625979  0.85891352     0.08600
C999        C  0.60161920  0.15525205  0.91230166     0.09600
S1000       S  0.63033953  0.15435409  0.85114470    -0.25100
H1001       H  0.60494497  0.13233425  0.80759287     0.19900
S1002       S  0.53920970  0.11395779  0.86419685    -0.30700
H1003       H  0.56392239  0.13777486  0.90687454     0.10200
C1004       C  0.59536291  0.17519650  0.92265088     0.03400
C1005       C  0.60422771  0.18362300  0.95026968    -0.13000
C1006       C  0.61931383  0.17251418  0.96769643    -0.08700
C1007       C  0.62616067  0.15285665  0.95624747     0.06900
C1008       C  0.61700948  0.14436520  0.92908204    -0.13800
S1009       S  0.57621052  0.18992144  0.90054532    -0.30700
H1010       H  0.59894804  0.19867398  0.95877757     0.11100
S1011       S  0.64682187  0.13796607  0.97446534    -0.27800
H1012       H  0.62211023  0.12920051  0.92065097     0.08300
H1013       H  0.54429746  0.09603507  0.84646237     0.26800
H1014       H  0.57716909  0.20816455  0.91906805     0.21600
H1015       H  0.65954019  0.15544153  0.98023923     0.26900
H1016       H  0.62738485  0.17142030  0.87163256     0.15700
C1017       C  0.39935086  0.17905814  0.40427553    -0.11600
C1018       C  0.40514568  0.15802471  0.40191064     0.15000
C1019       C  0.40410971  0.14519621  0.42901224     0.01900
C1020       C  0.39785297  0.15378182  0.45793727    -0.15900
C1021       C  0.39248020  0.17498832  0.46079008    -0.10700
C1022       C  0.39317036  0.18771875  0.43331450     0.08600
C1023       C  0.41352176  0.15014560  0.37152850     0.09600
S1024       S  0.41092824  0.11784109  0.42856620    -0.25100
H1025       H  0.39739659  0.14370110  0.47855158     0.19900
S1026       S  0.38640964  0.21498143  0.43345166    -0.30700
H1027       H  0.40015504  0.18892682  0.38344236     0.10200
C1028       C  0.40033447  0.14499955  0.34600643     0.03400
C1029       C  0.40890743  0.13588531  0.31868411    -0.13000
C1030       C  0.43047946  0.13216118  0.31610592    -0.08700
C1031       C  0.44368221  0.13797685  0.34155056     0.06900
C1032       C  0.43506011  0.14690313  0.36884214    -0.13800
S1033       S  0.37259356  0.14970835  0.34852244    -0.30700
H1034       H  0.39877005  0.13183321  0.29906618     0.11100
S1035       S  0.47147507  0.13375314  0.34139830    -0.27800
H1036       H  0.44517127  0.15093420  0.38852762     0.08300
H1037       H  0.40262251  0.22021234  0.45452231     0.26800
H1038       H  0.36753822  0.14248609  0.31795923     0.21600
H1039       H  0.47011476  0.11338288  0.32910132     0.26900
H1040       H  0.40664403  0.11414539  0.39638076     0.15700
C1041       C  0.54712517  0.12434662  0.19223203    -0.11600
C1042       C  0.54698130  0.13369432  0.16219498     0.15000
C1043       C  0.52785336  0.13617852  0.14595713     0.01900
C1044       C  0.50941142  0.12912410  0.15991057    -0.15900
C1045       C  0.50940170  0.12027328  0.19033332    -0.10700
C1046       C  0.52859905  0.11760883  0.20645243     0.08600
C1047       C  0.56692594  0.14048538  0.14798042     0.09600
S1048       S  0.52579385  0.14895935  0.10795208    -0.25100
H1049       H  0.49479681  0.13143042  0.14743428     0.19900
S1050       S  0.53065931  0.10514571  0.24460808    -0.30700
H1051       H  0.56181016  0.12216858  0.20456476     0.10200
C1052       C  0.57805400  0.15766721  0.16024434     0.03400
C1053       C  0.59534822  0.16527877  0.14359957    -0.13000
C1054       C  0.60111675  0.15656574  0.11440867    -0.08700
C1055       C  0.59069437  0.13868455  0.10304963     0.06900
C1056       C  0.57386446  0.13068314  0.12014913    -0.13800
S1057       S  0.56881330  0.17146863  0.19488609    -0.30700
H1058       H  0.60315767  0.17925997  0.15177300     0.11100
S1059       S  0.59742307  0.12613063  0.06609699    -0.27800
H1060       H  0.56543459  0.11736209  0.11088444     0.08300
H1061       H  0.51512628  0.09021872  0.23845262     0.26800
H1062       H  0.58543989  0.18569568  0.19698641     0.21600
H1063       H  0.61834736  0.13268703  0.06563306     0.26900
H1064       H  0.54207868  0.16324351  0.11305626     0.15700
C1065       C  0.58049702  0.33179367  0.35903866    -0.11600
C1066       C  0.56770065  0.32827610  0.38537643     0.15000
C1067       C  0.54637132  0.33372627  0.38375821     0.01900
C1068       C  0.53845890  0.34290863  0.35607323    -0.15900
C1069       C  0.55119406  0.34610889  0.32938741    -0.10700
C1070       C  0.57243387  0.33998343  0.33089818     0.08600
C1071       C  0.57724719  0.31862801  0.41380550     0.09600
S1072       S  0.52836475  0.32881440  0.41571062    -0.25100
H1073       H  0.52211506  0.34722123  0.35518850     0.19900
S1074       S  0.58984955  0.34065146  0.29737452    -0.30700
H1075       H  0.59681539  0.32736492  0.36007222     0.10200
C1076       C  0.58441515  0.29781516  0.41323617     0.03400
C1077       C  0.59478539  0.28966053  0.43975016    -0.13000
C1078       C  0.59832089  0.30193639  0.46677711    -0.08700
C1079       C  0.59039494  0.32255749  0.46774912     0.06900
C1080       C  0.58013775  0.33073246  0.44116820    -0.13800
S1081       S  0.58043839  0.28161751  0.37866192    -0.30700
H1082       H  0.60066881  0.27382552  0.43912499     0.11100
S1083       S  0.59229128  0.33900963  0.50235590    -0.27800
H1084       H  0.57444110  0.34664947  0.44173232     0.08300
H1085       H  0.57532166  0.33195909  0.27615404     0.26800
H1086       H  0.58882830  0.26315027  0.39143910     0.21600
H1087       H  0.58876478  0.32284036  0.52424532     0.26900
H1088       H  0.53841280  0.31081765  0.42717592     0.15700
C1089       C  0.58716047  0.27793198  0.10205172    -0.11600
C1090       C  0.59370352  0.28194912  0.13318933     0.15000
C1091       C  0.60986801  0.26980639  0.14641324     0.01900
C1092       C  0.61850316  0.25343129  0.12883308    -0.15900
C1093       C  0.61162583  0.24883157  0.09789412    -0.10700
C1094       C  0.59596258  0.26162925  0.08412284     0.08600
C1095       C  0.58205279  0.29749292  0.15234414     0.09600
S1096       S  0.61987228  0.27416019  0.18587827    -0.25100
H1097       H  0.63056705  0.24400198  0.13977467     0.19900
S1098       S  0.58671194  0.25746979  0.04409464    -0.30700
H1099       H  0.57472908  0.28735092  0.09213949     0.10200
C1100       C  0.58344772  0.31908505  0.14657664     0.03400
C1101       C  0.57192531  0.33305313  0.16546410    -0.13000
C1102       C  0.55907764  0.32587602  0.19019736    -0.08700
C1103       C  0.55820496  0.30410598  0.19621518     0.06900
C1104       C  0.56935999  0.29027897  0.17696331    -0.13800
S1105       S  0.60037494  0.32884117  0.11580208    -0.30700
H1106       H  0.57291595  0.34963438  0.16088575     0.11100
S1107       S  0.54385775  0.29271384  0.22857997    -0.27800
H1108       H  0.56844172  0.27367679  0.18155738     0.08300
H1109       H  0.57130378  0.27313025  0.04396053     0.26800
H1110       H  0.59491526  0.35000728  0.11899781     0.21600
H1111       H  0.55215002  0.30638975  0.25142583     0.26900
H1112       H  0.61597913  0.29575518  0.18653833     0.15700
C1113       C  0.41638226  0.30190007  0.91333169    -0.11600
C1114       C  0.40997252  0.32080500  0.89979855     0.15000
C1115       C  0.39300413  0.33178513  0.91316232     0.01900
C1116       C  0.38281567  0.32358196  0.93970992    -0.15900
C1117       C  0.38933827  0.30472145  0.95354013    -0.10700
C1118       C  0.40656958  0.29396099  0.94030819     0.08600
C1119       C  0.42135106  0.32860307  0.87177679     0.09600
S1120       S  0.38366938  0.35631288  0.89759406    -0.25100
H1121       H  0.36974627  0.33205806  0.94972944     0.19900
S1122       S  0.41767466  0.27075797  0.95763738    -0.30700
H1123       H  0.42950530  0.29354041  0.90322234     0.10200
C1124       C  0.44179123  0.33645754  0.87440407     0.03400
C1125       C  0.45192897  0.34394958  0.84727230    -0.13000
C1126       C  0.44201980  0.34374699  0.81753806    -0.08700
C1127       C  0.42181222  0.33502095  0.81489644     0.06900
C1128       C  0.41161790  0.32786412  0.84206569    -0.13800
S1129       S  0.45460675  0.33777671  0.91254215    -0.30700
H1130       H  0.46740987  0.35050650  0.84938347     0.11100
S1131       S  0.40846213  0.33173872  0.77757428    -0.27800
H1132       H  0.39607968  0.32138745  0.84001541     0.08300
H1133       H  0.41674145  0.27830394  0.98897280     0.26800
H1134       H  0.47353136  0.34621159  0.90167928     0.21600
H1135       H  0.42634439  0.32498661  0.76109428     0.26900
H1136       H  0.40299349  0.36336372  0.88615283     0.15700
C1137       C  0.39951978  0.19883819  0.09053961    -0.11600
C1138       C  0.38572257  0.19081441  0.11319557     0.15000
C1139       C  0.36633815  0.20075740  0.11810241     0.01900
C1140       C  0.36146042  0.21885010  0.10101989    -0.15900
C1141       C  0.37552831  0.22734000  0.07897768    -0.10700
C1142       C  0.39483877  0.21711009  0.07383831     0.08600
C1143       C  0.39363240  0.17448833  0.13488187     0.09600
S1144       S  0.34745141  0.19146577  0.14644841    -0.25100
H1145       H  0.34661013  0.22645131  0.10521467     0.19900
S1146       S  0.41505687  0.22750375  0.04876872    -0.30700
H1147       H  0.41465041  0.19156681  0.08737127     0.10200
C1148       C  0.39697852  0.15375334  0.12495525     0.03400
C1149       C  0.40737945  0.13979316  0.14528061    -0.13000
C1150       C  0.41391193  0.14614032  0.17562739    -0.08700
C1151       C  0.40842527  0.16630203  0.18652555     0.06900
C1152       C  0.39899453  0.18039963  0.16578360    -0.13800
S1153       S  0.38785095  0.14512123  0.08664233    -0.30700
H1154       H  0.41099274  0.12417214  0.13716251     0.11100
S1155       S  0.41226417  0.17479844  0.22690320    -0.27800
H1156       H  0.39578806  0.19615193  0.17378304     0.08300
H1157       H  0.41343740  0.24788112  0.06106115     0.26800
H1158       H  0.39228517  0.12381354  0.09111224     0.21600
H1159       H  0.40757230  0.15527285  0.24038101     0.26900
H1160       H  0.35412064  0.17055426  0.14659925     0.15700
C1161       C  0.42125934  0.34195273  0.11470345    -0.11600
C1162       C  0.41667660  0.33959867  0.14702288     0.15000
C1163       C  0.39788959  0.32966230  0.15595693     0.01900
C1164       C  0.38546415  0.32025932  0.13263200    -0.15900
C1165       C  0.39107364  0.32119328  0.10051358    -0.10700
C1166       C  0.40846572  0.33323106  0.09141979     0.08600
C1167       C  0.43275704  0.34622204  0.17025491     0.09600
S1168       S  0.38921442  0.32798569  0.19656230    -0.25100
H1169       H  0.37179994  0.31150871  0.13971165     0.19900
S1170       S  0.41509286  0.33805616  0.05050870    -0.30700
H1171       H  0.43524492  0.35015782  0.10756865     0.10200
C1172       C  0.44357260  0.33150563  0.18903859     0.03400
C1173       C  0.46032048  0.33810049  0.20793039    -0.13000
C1174       C  0.46727310  0.35882979  0.20718764    -0.08700
C1175       C  0.45619687  0.37362456  0.18887695     0.06900
C1176       C  0.43906126  0.36718168  0.17075107    -0.13800
S1177       S  0.43778599  0.30395960  0.18624526    -0.30700
H1178       H  0.46909862  0.32671398  0.22146210     0.11100
S1179       S  0.46330540  0.40080475  0.18726395    -0.27800
H1180       H  0.43090757  0.37849451  0.15616593     0.08300
H1181       H  0.39434897  0.33820226  0.03952958     0.26800
H1182       H  0.45184261  0.29720979  0.20973995     0.21600
H1183       H  0.47134694  0.40174334  0.21828010     0.26900
H1184       H  0.40019226  0.34553416  0.20752482     0.15700
C1185       C  0.56507310  0.65944132  0.16813569    -0.11600
C1186       C  0.58423844  0.65152969  0.15776513     0.15000
C1187       C  0.59371911  0.63488269  0.17428253     0.01900
C1188       C  0.58331321  0.62592154  0.20004509    -0.15900
C1189       C  0.56370114  0.63337281  0.20986408    -0.10700
C1190       C  0.55482225  0.65074625  0.19411286     0.08600
C1191       C  0.59247240  0.65939168  0.12748769     0.09600
S1192       S  0.61856012  0.62388935  0.16286325    -0.25100
H1193       H  0.59040909  0.61277774  0.21210123     0.19900
S1194       S  0.53069391  0.66287619  0.20611915    -0.30700
H1195       H  0.55785917  0.67228102  0.15547835     0.10200
C1196       C  0.58920913  0.64810762  0.09930028     0.03400
C1197       C  0.59600573  0.65644064  0.07056694    -0.13000
C1198       C  0.60581283  0.67595220  0.06927957    -0.08700
C1199       C  0.60938897  0.68714666  0.09771478     0.06900
C1200       C  0.60238491  0.67885781  0.12649577    -0.13800
S1201       S  0.57562984  0.62343232  0.09975935    -0.30700
H1202       H  0.59322406  0.64788784  0.04880209     0.11100
S1203       S  0.62343366  0.71146900  0.09904584    -0.27800
H1204       H  0.60485300  0.68749241  0.14830902     0.08300
H1205       H  0.53542489  0.66231637  0.23870967     0.26800
H1206       H  0.57503611  0.62041332  0.06672546     0.21600
H1207       H  0.63839386  0.70545246  0.07637599     0.26900
H1208       H  0.62641516  0.64186897  0.14807919     0.15700
C1209       C  0.52203093  0.46555865  0.27898617    -0.11600
C1210       C  0.53126737  0.47643505  0.25393443     0.15000
C1211       C  0.54077756  0.46525621  0.22902479     0.01900
C1212       C  0.54032129  0.44344559  0.22926571    -0.15900
C1213       C  0.53063314  0.43237814  0.25397514    -0.10700
C1214       C  0.52201104  0.44376051  0.27971531     0.08600
C1215       C  0.53218251  0.49938547  0.25583137     0.09600
S1216       S  0.55365080  0.47798912  0.19635776    -0.25100
H1217       H  0.54729576  0.43508095  0.20955626     0.19900
S1218       S  0.51183257  0.43166972  0.31497423    -0.30700
H1219       H  0.51535568  0.47419429  0.29871226     0.10200
C1220       C  0.51443541  0.51183858  0.25025424     0.03400
C1221       C  0.51579945  0.53350118  0.25426554    -0.13000
C1222       C  0.53458968  0.54289998  0.26370448    -0.08700
C1223       C  0.55261882  0.53038161  0.26752442     0.06900
C1224       C  0.55111447  0.50876959  0.26411636    -0.13800
S1225       S  0.49012565  0.50012763  0.23798322    -0.30700
H1226       H  0.50204409  0.54307872  0.25090658     0.11100
S1227       S  0.57810683  0.54096848  0.27560214    -0.27800
H1228       H  0.56483226  0.49915472  0.26778675     0.08300
H1229       H  0.52882951  0.41787464  0.31819373     0.26800
H1230       H  0.47840331  0.51869542  0.23677042     0.21600
H1231       H  0.57560869  0.55826568  0.25539406     0.26900
H1232       H  0.54026115  0.49538541  0.19534658     0.15700
C1233       C  0.37625772  0.64945701  0.60363043    -0.11600
C1234       C  0.39324471  0.65915855  0.61844122     0.15000
C1235       C  0.40150025  0.67767153  0.60552286     0.01900
C1236       C  0.39333632  0.68541177  0.57710683    -0.15900
C1237       C  0.37655157  0.67548126  0.56193122    -0.10700
C1238       C  0.36741027  0.65778534  0.57617168     0.08600
C1239       C  0.40204871  0.64934810  0.64710406     0.09600
S1240       S  0.42218029  0.69220552  0.62431187    -0.25100
H1241       H  0.40018638  0.69925880  0.56674368     0.19900
S1242       S  0.34378116  0.64588575  0.56170263    -0.30700
H1243       H  0.36957237  0.63552118  0.61398027     0.10200
C1244       C  0.39059575  0.64854524  0.67551913     0.03400
C1245       C  0.39904922  0.63817274  0.70172879    -0.13000
C1246       C  0.41881323  0.62870464  0.70022008    -0.08700
C1247       C  0.43018959  0.62942842  0.67154653     0.06900
C1248       C  0.42176540  0.63989983  0.64539686    -0.13800
S1249       S  0.36550030  0.66129951  0.67871433    -0.30700
H1250       H  0.39038641  0.63779941  0.72372132     0.11100
S1251       S  0.45495489  0.61652738  0.66627080    -0.27800
H1252       H  0.43039061  0.64028526  0.62333681     0.08300
H1253       H  0.33410329  0.66490250  0.55362538     0.26800
H1254       H  0.36217385  0.65706717  0.71103481     0.21600
H1255       H  0.44949213  0.59877583  0.68400477     0.26900
H1256       H  0.41713902  0.68658780  0.65559875     0.15700
C1257       C  0.40372631  0.64885565  0.36399649    -0.11600
C1258       C  0.42466563  0.64736327  0.37339298     0.15000
C1259       C  0.43080473  0.65572807  0.40290674     0.01900
C1260       C  0.41594420  0.66509321  0.42246924    -0.15900
C1261       C  0.39495367  0.66690715  0.41321325    -0.10700
C1262       C  0.38885148  0.65870907  0.38336665     0.08600
C1263       C  0.44011132  0.63747904  0.35206982     0.09600
S1264       S  0.45735441  0.65483684  0.41720087    -0.25100
H1265       H  0.42097535  0.67121869  0.44519975     0.19900
S1266       S  0.36274372  0.66104878  0.36798823    -0.30700
H1267       H  0.39903293  0.64263126  0.34115593     0.10200
C1268       C  0.44765695  0.61719837  0.35781012     0.03400
C1269       C  0.46524040  0.60998196  0.34123832    -0.13000
C1270       C  0.47552558  0.62273018  0.31909539    -0.08700
C1271       C  0.46722135  0.64278132  0.31247073     0.06900
C1272       C  0.44940848  0.64971534  0.32853432    -0.13800
S1273       S  0.43539991  0.60090230  0.38726864    -0.30700
H1274       H  0.47141620  0.59462197  0.34635077     0.11100
S1275       S  0.47974208  0.66124213  0.28655664    -0.27800
H1276       H  0.44371660  0.66540936  0.32444208     0.08300
H1277       H  0.36092901  0.68235226  0.37565551     0.26800
H1278       H  0.44683147  0.58267705  0.38049099     0.21600
H1279       H  0.49935321  0.65923803  0.30133666     0.26900
H1280       H  0.46705947  0.65709926  0.38756881     0.15700
C1281       C  0.56658439  0.79518495  0.60994165    -0.11600
C1282       C  0.57299157  0.81528419  0.61849368     0.15000
C1283       C  0.58791174  0.82579562  0.59992737     0.01900
C1284       C  0.59621712  0.81587170  0.57329610    -0.15900
C1285       C  0.59023487  0.79550111  0.56507559    -0.10700
C1286       C  0.57474613  0.78531304  0.58317974     0.08600
C1287       C  0.56411201  0.82454814  0.64737705     0.09600
S1288       S  0.59728342  0.85161565  0.60924549    -0.25100
H1289       H  0.60794546  0.82391715  0.55946053     0.19900
S1290       S  0.56397445  0.76027288  0.57274439    -0.30700
H1291       H  0.55488016  0.78727023  0.62401694     0.10200
C1292       C  0.54915552  0.84065199  0.64611788     0.03400
C1293       C  0.54130145  0.84888167  0.67449400    -0.13000
C1294       C  0.54802496  0.84109713  0.70385891    -0.08700
C1295       C  0.56234096  0.82433275  0.70488446     0.06900
C1296       C  0.57043802  0.81644139  0.67665345    -0.13800
S1297       S  0.53987671  0.85043685  0.60849892    -0.30700
H1298       H  0.53013237  0.86157263  0.67388393     0.11100
S1299       S  0.57004860  0.81162043  0.74121354    -0.27800
H1300       H  0.58154418  0.80367866  0.67742913     0.08300
H1301       H  0.56275812  0.76469944  0.54010391     0.26800
H1302       H  0.52478658  0.86416802  0.62088818     0.21600
H1303       H  0.55026185  0.81301370  0.75548033     0.26900
H1304       H  0.59551350  0.84979139  0.64233834     0.15700
C1305       C  0.61500520  0.67795729  0.42640280    -0.11600
C1306       C  0.59457166  0.67122334  0.43205674     0.15000
C1307       C  0.58298282  0.68026669  0.45698177     0.01900
C1308       C  0.59104762  0.69753666  0.47294996    -0.15900
C1309       C  0.61044567  0.70600756  0.46454426    -0.10700
C1310       C  0.62319149  0.69511802  0.44267587     0.08600
C1311       C  0.58419185  0.65868684  0.40737666     0.09600
S1312       S  0.55680959  0.67218661  0.46671260    -0.25100
H1313       H  0.58125273  0.70543715  0.49017918     0.19900
S1314       S  0.64949355  0.70288837  0.43340512    -0.30700
H1315       H  0.62408007  0.67074863  0.40762863     0.10200
C1316       C  0.57119469  0.66856209  0.38504996     0.03400
C1317       C  0.56124485  0.65661821  0.36190705    -0.13000
C1318       C  0.56420964  0.63491898  0.35997356    -0.08700
C1319       C  0.57750397  0.62506362  0.38237310     0.06900
C1320       C  0.58749206  0.63710818  0.40564256    -0.13800
S1321       S  0.56766485  0.69658483  0.38545360    -0.30700
H1322       H  0.55114240  0.66438129  0.34504366     0.11100
S1323       S  0.58283195  0.59748551  0.38224466    -0.27800
H1324       H  0.59771110  0.62962636  0.42268349     0.08300
H1325       H  0.65393227  0.71047210  0.46401191     0.26800
H1326       H  0.55660062  0.69808536  0.35672669     0.21600
H1327       H  0.56168282  0.59208393  0.38559517     0.26900
H1328       H  0.55841064  0.65192493  0.45416794     0.15700
C1329       C  0.40235118  0.84577248  0.16361045    -0.11600
C1330       C  0.41297433  0.82870962  0.15051987     0.15000
C1331       C  0.43233747  0.82255341  0.16343597     0.01900
C1332       C  0.44010794  0.83295438  0.19014340    -0.15900
C1333       C  0.42915102  0.84965619  0.20407034    -0.10700
C1334       C  0.41033406  0.85650292  0.18980751     0.08600
C1335       C  0.40357073  0.81814012  0.12288077     0.09600
S1336       S  0.44757712  0.80124269  0.14760363    -0.25100
H1337       H  0.45462593  0.82759734  0.20053253     0.19900
S1338       S  0.39593054  0.87903257  0.20316228    -0.30700
H1339       H  0.38775274  0.85084985  0.15315075     0.10200
C1340       C  0.39287030  0.79905037  0.12576052     0.03400
C1341       C  0.38366208  0.79006870  0.09876872    -0.13000
C1342       C  0.38496931  0.79990125  0.06909009    -0.08700
C1343       C  0.39633239  0.81869977  0.06627553     0.06900
C1344       C  0.40513480  0.82777487  0.09323419    -0.13800
S1345       S  0.39045118  0.78650915  0.16390063    -0.30700
H1346       H  0.37504494  0.77563480  0.10086536     0.11100
S1347       S  0.40111113  0.83136536  0.02880690    -0.27800
H1348       H  0.41364769  0.84228711  0.09102846     0.08300
H1349       H  0.41382413  0.89130498  0.20814829     0.26800
H1350       H  0.37999480  0.76859369  0.15304149     0.21600
H1351       H  0.40418339  0.81271461  0.01176927     0.26900
H1352       H  0.44058269  0.80286070  0.11612176     0.15700
C1353       C  0.44244273  0.97107602  0.28754094    -0.11600
C1354       C  0.45202875  0.97780286  0.25947313     0.15000
C1355       C  0.46249253  0.96303061  0.24032035     0.01900
C1356       C  0.46306964  0.94205002  0.24954818    -0.15900
C1357       C  0.45291434  0.93510746  0.27716295    -0.10700
C1358       C  0.44274537  0.95005244  0.29658728     0.08600
C1359       C  0.45170545  0.00043736  0.25175230     0.09600
S1360       S  0.47470594  0.96976393  0.20319890    -0.25100
H1361       H  0.47089820  0.93092963  0.23425323     0.19900
S1362       S  0.43011030  0.94360804  0.33340825    -0.30700
H1363       H  0.43479514  0.98239108  0.30272818     0.10200
C1364       C  0.43287684  0.01123559  0.24579705     0.03400
C1365       C  0.43333290  0.03282633  0.23997958    -0.13000
C1366       C  0.45223727  0.04387226  0.23991365    -0.08700
C1367       C  0.47111943  0.03277392  0.24437488     0.06900
C1368       C  0.47060910  0.01138297  0.25087027    -0.13800
S1369       S  0.40830580  0.99748033  0.24501518    -0.30700
H1370       H  0.41887806  0.04121952  0.23608600     0.11100
S1371       S  0.49642328  0.04474716  0.24068315    -0.27800
H1372       H  0.48513280  0.00311488  0.25497294     0.08300
H1373       H  0.44689717  0.93144585  0.34450777     0.26800
H1374       H  0.39547424  0.01510407  0.24091381     0.21600
H1375       H  0.49073314  0.05775022  0.21520078     0.26900
H1376       H  0.46062739  0.98579422  0.19527878     0.15700
C1377       C  0.39043176  0.78620527  0.43004261    -0.11600
C1378       C  0.37678151  0.79418393  0.40701699     0.15000
C1379       C  0.35748815  0.78415462  0.40180948     0.01900
C1380       C  0.35291635  0.76571769  0.41807547    -0.15900
C1381       C  0.36705849  0.75708323  0.43988385    -0.10700
C1382       C  0.38592144  0.76775521  0.44628962     0.08600
C1383       C  0.38487931  0.81034329  0.38513302     0.09600
S1384       S  0.33833933  0.79380225  0.37409897    -0.25100
H1385       H  0.33828784  0.75786785  0.41326455     0.19900
S1386       S  0.40588590  0.75770533  0.47228616    -0.30700
H1387       H  0.40543556  0.79359615  0.43373857     0.10200
C1388       C  0.39117759  0.83022137  0.39580370     0.03400
C1389       C  0.40218967  0.84342001  0.37514655    -0.13000
C1390       C  0.40696819  0.83708358  0.34405805    -0.08700
C1391       C  0.39888491  0.81796118  0.33270993     0.06900
C1392       C  0.38835995  0.80469436  0.35345730    -0.13800
S1393       S  0.38550004  0.83856163  0.43580260    -0.30700
H1394       H  0.40797832  0.85825499  0.38370948     0.11100
S1395       S  0.40135225  0.80958451  0.29203528    -0.27800
H1396       H  0.38326618  0.78955279  0.34500760     0.08300
H1397       H  0.40568526  0.73759457  0.45882637     0.26800
H1398       H  0.39432871  0.85856297  0.43328024     0.21600
H1399       H  0.39981178  0.82977394  0.27913196     0.26900
H1400       H  0.34457156  0.81479899  0.37571130     0.15700
C1401       C  0.53932533  0.83684090  0.33531032    -0.11600
C1402       C  0.53709191  0.83020293  0.36675786     0.15000
C1403       C  0.51868898  0.83522172  0.38354507     0.01900
C1404       C  0.50247740  0.84562869  0.36795424    -0.15900
C1405       C  0.50420791  0.85140799  0.33596255    -0.10700
C1406       C  0.52322412  0.84760392  0.31987468     0.08600
C1407       C  0.55402380  0.81795633  0.38158913     0.09600
S1408       S  0.51456825  0.82811987  0.42450258    -0.25100
H1409       H  0.48809211  0.84860317  0.38069991     0.19900
S1410       S  0.52811423  0.85645034  0.28003678    -0.30700
H1411       H  0.55367330  0.83349601  0.32266203     0.10200
C1412       C  0.55157346  0.79659471  0.38827128     0.03400
C1413       C  0.56648654  0.78639969  0.40698927    -0.13000
C1414       C  0.58406743  0.79701842  0.41871866    -0.08700
C1415       C  0.58736833  0.81798825  0.40930926     0.06900
C1416       C  0.57217982  0.82825902  0.39126275    -0.13800
S1417       S  0.52918801  0.78246542  0.37359580    -0.30700
H1418       H  0.56410559  0.77021003  0.41323553     0.11100
S1419       S  0.60993261  0.83293302  0.42060914    -0.27800
H1420       H  0.57420851  0.84460461  0.38552686     0.08300
H1421       H  0.51712448  0.87534353  0.28362718     0.26800
H1422       H  0.53434720  0.76304481  0.38703514     0.21600
H1423       H  0.62406824  0.81788477  0.40911800     0.26900
H1424       H  0.53562983  0.82822439  0.43375399     0.15700
C1425       C  0.91558105  0.66545397  0.93003725    -0.11600
C1426       C  0.90287682  0.65730773  0.90591082     0.15000
C1427       C  0.88100476  0.65710710  0.91014907     0.01900
C1428       C  0.87243524  0.66432497  0.93860958    -0.15900
C1429       C  0.88510478  0.67276840  0.96248337    -0.10700
C1430       C  0.90694904  0.67333508  0.95808351     0.08600
C1431       C  0.91280360  0.64808048  0.87737005     0.09600
S1432       S  0.86316784  0.64858693  0.87969729    -0.34700
H1433       H  0.85564882  0.66405583  0.94167473     0.19900
S1434       S  0.92468362  0.68305980  0.98780882    -0.30700
H1435       H  0.93238229  0.66536460  0.92718470     0.10200
C1436       C  0.92486714  0.66015245  0.85629340     0.03400
C1437       C  0.93294915  0.65084725  0.82875857    -0.13000
C1438       C  0.92915893  0.62976373  0.82178398    -0.08700
C1439       C  0.91805442  0.61747565  0.84383264     0.06900
C1440       C  0.90989688  0.62677696  0.87115074    -0.13800
S1441       S  0.92884751  0.68768055  0.86325813    -0.30700
H1442       H  0.94146792  0.66026774  0.81185781     0.11100
S1443       S  0.91423411  0.58979415  0.83892655    -0.27800
H1444       H  0.90114589  0.61732366  0.88776687     0.08300
H1445       H  0.91376217  0.67456385  0.01365166     0.26800
H1446       H  0.94288361  0.69099875  0.83815244     0.21600
H1447       H  0.93385346  0.58609219  0.82501891     0.26900
H1448       H  0.87538532  0.65546160  0.85407676     0.15700
C1449       C  0.92655318  0.83636049  0.37357972    -0.11600
C1450       C  0.90521280  0.83173112  0.37279159     0.15000
C1451       C  0.89357775  0.83581945  0.34506862     0.01900
C1452       C  0.90367222  0.84409298  0.31857799    -0.15900
C1453       C  0.92518485  0.84823477  0.31893313    -0.10700
C1454       C  0.93661357  0.84479466  0.34716581     0.08600
C1455       C  0.89564359  0.82270898  0.40137365     0.09600
S1456       S  0.86590547  0.83099690  0.34175001    -0.25100
H1457       H  0.89468544  0.84681633  0.29717853     0.19900
S1458       S  0.96371899  0.85162456  0.35156967    -0.30700
H1459       H  0.93538392  0.83356740  0.39511996     0.10200
C1460       C  0.89546324  0.80103755  0.40621940     0.03400
C1461       C  0.88656617  0.79300194  0.43390614    -0.13000
C1462       C  0.87812684  0.80623497  0.45728483    -0.08700
C1463       C  0.87830596  0.82814455  0.45216663     0.06900
C1464       C  0.88708332  0.83605151  0.42419060    -0.13800
S1465       S  0.90647523  0.78362552  0.37693562    -0.30700
H1466       H  0.88631617  0.77628425  0.43736779     0.11100
S1467       S  0.86794954  0.84642644  0.48088308    -0.27800
H1468       H  0.88751866  0.85271565  0.42005155     0.08300
H1469       H  0.96182107  0.87069884  0.33528909     0.26800
H1470       H  0.90540047  0.76538294  0.39536536     0.21600
H1471       H  0.87096910  0.86470338  0.46305164     0.26900
H1472       H  0.86414350  0.81598346  0.36576626     0.15700
C1473       C  0.71371818  0.77415999  0.53425988    -0.11600
C1474       C  0.72597026  0.77699057  0.50710630     0.15000
C1475       C  0.71628429  0.77858355  0.47720150     0.01900
C1476       C  0.69465116  0.77678059  0.47498787    -0.15900
C1477       C  0.68225238  0.77406886  0.50213509    -0.10700
C1478       C  0.69199553  0.77324441  0.53226296     0.08600
C1479       C  0.74882409  0.77792011  0.51074454     0.09600
S1480       S  0.73063202  0.78316215  0.44112420    -0.25100
H1481       H  0.68746396  0.77760872  0.45175095     0.19900
S1482       S  0.67781430  0.77194566  0.56908291    -0.30700
H1483       H  0.72117113  0.77309849  0.55731413     0.10200
C1484       C  0.75840346  0.79447569  0.52709443     0.03400
C1485       C  0.78002004  0.79420475  0.53149135    -0.13000
C1486       C  0.79237059  0.77788432  0.51948696    -0.08700
C1487       C  0.78274134  0.76159308  0.50204135     0.06900
C1488       C  0.76102732  0.76177003  0.49817533    -0.13800
S1489       S  0.74314387  0.81620189  0.54168978    -0.30700
H1490       H  0.78737277  0.80687612  0.54429123     0.11100
S1491       S  0.79752265  0.74008153  0.48556880    -0.27800
H1492       H  0.75337039  0.74916270  0.48561660     0.08300
H1493       H  0.66346239  0.78760820  0.56046114     0.26800
H1494       H  0.75978700  0.82744741  0.55508058     0.21600
H1495       H  0.78075495  0.72970504  0.47093902     0.26900
H1496       H  0.74593280  0.79592054  0.45506971     0.15700
C1497       C  0.88588064  0.68941223  0.58801778    -0.11600
C1498       C  0.87404278  0.68463343  0.61500020     0.15000
C1499       C  0.85617770  0.69667560  0.62189968     0.01900
C1500       C  0.85170009  0.71429924  0.60355822    -0.15900
C1501       C  0.86433907  0.71999017  0.57769435    -0.10700
C1502       C  0.88109456  0.70672312  0.56898557     0.08600
C1503       C  0.88274597  0.66933669  0.63786599     0.09600
S1504       S  0.83877517  0.69066798  0.65422297    -0.25100
H1505       H  0.83845811  0.72388875  0.61005610     0.19900
S1506       S  0.89719515  0.71181769  0.53468764    -0.30700
H1507       H  0.89948505  0.68004318  0.58272269     0.10200
C1508       C  0.88696542  0.64845220  0.62935907     0.03400
C1509       C  0.89829252  0.63568810  0.65028476    -0.13000
C1510       C  0.90543431  0.64342888  0.67950187    -0.08700
C1511       C  0.89980329  0.66383727  0.68888624     0.06900
C1512       C  0.88886306  0.67662512  0.66784099    -0.13800
S1513       S  0.87812057  0.63813221  0.59181895    -0.30700
H1514       H  0.90233765  0.61992158  0.64334086     0.11100
S1515       S  0.90594173  0.67443760  0.72743071    -0.27800
H1516       H  0.88548484  0.69259129  0.67462924     0.08300
H1517       H  0.91306029  0.69731929  0.54160356     0.26800
H1518       H  0.88534507  0.61761435  0.59641524     0.21600
H1519       H  0.90362640  0.65544722  0.74377856     0.26900
H1520       H  0.84347756  0.66923967  0.65545943     0.15700
C1521       C  0.09665451  0.82122577  0.91474744    -0.11600
C1522       C  0.08192121  0.80995279  0.89717011     0.15000
C1523       C  0.07646919  0.78960076  0.90683784     0.01900
C1524       C  0.08491390  0.78150807  0.93482890    -0.15900
C1525       C  0.09938402  0.79291558  0.95288061    -0.10700
C1526       C  0.10574226  0.81279127  0.94205288     0.08600
C1527       C  0.07274497  0.81976506  0.86868337     0.09600
S1528       S  0.05898484  0.77309848  0.88452741    -0.25100
H1529       H  0.08011459  0.76613022  0.94254066     0.19900
S1530       S  0.12605490  0.82773023  0.96091753    -0.30700
H1531       H  0.10130330  0.83661336  0.90686440     0.10200
C1532       C  0.05164061  0.82588119  0.86766063     0.03400
C1533       C  0.04349548  0.83445003  0.83969059    -0.13000
C1534       C  0.05604068  0.83715818  0.81269656    -0.08700
C1535       C  0.07721050  0.83079871  0.81386826     0.06900
C1536       C  0.08538022  0.82256388  0.84195913    -0.13800
S1537       S  0.03519863  0.82329328  0.90220744    -0.30700
H1538       H  0.02734263  0.83933956  0.83900134     0.11100
S1539       S  0.09432397  0.83144623  0.78004347    -0.27800
H1540       H  0.10154384  0.81762407  0.84269836     0.08300
H1541       H  0.13922503  0.81040408  0.96576082     0.26800
H1542       H  0.01678420  0.83099622  0.88828173     0.21600
H1543       H  0.07939721  0.82285993  0.75932227     0.26900
H1544       H  0.06311807  0.78173825  0.85457934     0.15700
C1545       C  0.94301234  0.85800214  0.65724268    -0.11600
C1546       C  0.93145937  0.84192128  0.67126295     0.15000
C1547       C  0.93763896  0.83433421  0.70130157     0.01900
C1548       C  0.95607328  0.84163672  0.71516159    -0.15900
C1549       C  0.96859693  0.85656166  0.69995204    -0.10700
C1550       C  0.96136664  0.86557097  0.67127142     0.08600
C1551       C  0.91577474  0.83087561  0.65145234     0.09600
S1552       S  0.92326492  0.81454796  0.72237164    -0.25100
H1553       H  0.96113346  0.83482196  0.73740027     0.19900
S1554       S  0.97553657  0.88615710  0.65148680    -0.30700
H1555       H  0.93828727  0.86374489  0.63417442     0.10200
C1556       C  0.89825695  0.84100851  0.63809427     0.03400
C1557       C  0.88546824  0.83012531  0.61656419    -0.13000
C1558       C  0.88985587  0.80933696  0.60816922    -0.08700
C1559       C  0.90681089  0.79902083  0.62288813     0.06900
C1560       C  0.91969103  0.80995941  0.64372463    -0.13800
S1561       S  0.89221313  0.86771728  0.64833970    -0.30700
H1562       H  0.87239678  0.83801054  0.60550330     0.11100
S1563       S  0.91270160  0.77178438  0.61669562    -0.27800
H1564       H  0.93312145  0.80207869  0.65385914     0.08300
H1565       H  0.96125368  0.88950522  0.62665606     0.26800
H1566       H  0.87315725  0.86886960  0.63184761     0.21600
H1567       H  0.89171604  0.76537441  0.61604416     0.26900
H1568       H  0.90382725  0.81908874  0.70848633     0.15700
C1569       C  0.07814092  0.67306046  0.39126743    -0.11600
C1570       C  0.08262291  0.65244237  0.38255437     0.15000
C1571       C  0.09609500  0.64033382  0.40154525     0.01900
C1572       C  0.10409499  0.64884099  0.42952464    -0.15900
C1573       C  0.09878006  0.66914781  0.43932496    -0.10700
C1574       C  0.08587519  0.68149411  0.41950160     0.08600
C1575       C  0.07208437  0.64369143  0.35450026     0.09600
S1576       S  0.10356884  0.61391535  0.39176409    -0.25100
H1577       H  0.11422844  0.63929727  0.44409603     0.19900
S1578       S  0.07768092  0.70759685  0.42936989    -0.30700
H1579       H  0.06786639  0.68236430  0.37652836     0.10200
C1580       C  0.05110170  0.63731157  0.35606805     0.03400
C1581       C  0.04178565  0.62822415  0.32938205    -0.13000
C1582       C  0.05304726  0.62546702  0.30114558    -0.08700
C1583       C  0.07382086  0.63282781  0.29930417     0.06900
C1584       C  0.08321530  0.64152595  0.32615472    -0.13800
S1585       S  0.03647072  0.63999519  0.39247388    -0.30700
H1586       H  0.02586017  0.62272815  0.33077743     0.11100
S1587       S  0.08888886  0.63243786  0.26321716    -0.27800
H1588       H  0.09921951  0.64684271  0.32490820     0.08300
H1589       H  0.07031307  0.70195406  0.45959031     0.26800
H1590       H  0.01745794  0.63221910  0.38077127     0.21600
H1591       H  0.07204627  0.63799797  0.24347972     0.26900
H1592       H  0.08537766  0.60846497  0.37515896     0.15700
C1593       C  0.26037344  0.70328499  0.52046012    -0.11600
C1594       C  0.24936865  0.68780671  0.50409460     0.15000
C1595       C  0.26000285  0.67494494  0.48227091     0.01900
C1596       C  0.28130032  0.67806098  0.47692644    -0.15900
C1597       C  0.29245356  0.69376964  0.49290779    -0.10700
C1598       C  0.28162805  0.70658955  0.51494920     0.08600
C1599       C  0.22649212  0.68686908  0.50803896     0.09600
S1600       S  0.24727810  0.65441913  0.46028094    -0.25100
H1601       H  0.28921552  0.66799100  0.46012574     0.19900
S1602       S  0.29353191  0.72787001  0.53615977    -0.30700
H1603       H  0.25212738  0.71336724  0.53689534     0.10200
C1604       C  0.21725317  0.67864669  0.53559484     0.03400
C1605       C  0.19544298  0.67857574  0.53835229    -0.13000
C1606       C  0.18266699  0.68678061  0.51426385    -0.08700
C1607       C  0.19212232  0.69460687  0.48633894     0.06900
C1608       C  0.21384508  0.69475192  0.48377238    -0.13800
S1609       S  0.23325168  0.66814846  0.56705584    -0.30700
H1610       H  0.18831490  0.67244982  0.55967868     0.11100
S1611       S  0.17753898  0.70395908  0.45266008    -0.27800
H1612       H  0.22102183  0.70093900  0.46246766     0.08300
H1613       H  0.30107460  0.73740384  0.50840177     0.26800
H1614       H  0.21683993  0.66314041  0.58780421     0.21600
H1615       H  0.16312261  0.68743308  0.45321614     0.26900
H1616       H  0.23151008  0.65041258  0.48257618     0.15700
C1617       C  0.09564655  0.75900708  0.62754223    -0.11600
C1618       C  0.08518999  0.77512133  0.61175724     0.15000
C1619       C  0.08295211  0.77430373  0.57853271     0.01900
C1620       C  0.09108478  0.75726499  0.56179639    -0.15900
C1621       C  0.10147137  0.74091647  0.57752999    -0.10700
C1622       C  0.10336422  0.74174284  0.61100906     0.08600
C1623       C  0.07524370  0.79154536  0.63106758     0.09600
S1624       S  0.06931946  0.79417130  0.55639860    -0.25100
H1625       H  0.08917939  0.75676014  0.53628556     0.19900
S1626       S  0.11367712  0.72063802  0.63452037    -0.30700
H1627       H  0.09687625  0.75941114  0.65317733     0.10200
C1628       C  0.05406216  0.79022962  0.63952735     0.03400
C1629       C  0.04536456  0.80562737  0.65906134    -0.13000
C1630       C  0.05751179  0.82216025  0.67081843    -0.08700
C1631       C  0.07893487  0.82308002  0.66285479     0.06900
C1632       C  0.08747286  0.80790088  0.64280244    -0.13800
S1633       S  0.03823942  0.76866560  0.62607420    -0.30700
H1634       H  0.02899539  0.80475473  0.66524208     0.11100
S1635       S  0.09650099  0.84231297  0.67885837    -0.27800
H1636       H  0.10392983  0.80852036  0.63689590     0.08300
H1637       H  0.10129235  0.70537756  0.61959172     0.26800
H1638       H  0.02140017  0.77227023  0.64676251     0.21600
H1639       H  0.08813909  0.84173292  0.70962009     0.26900
H1640       H  0.07461201  0.81084169  0.57652128     0.15700
C1641       C  0.04666612  0.63857893  0.59851457    -0.11600
C1642       C  0.05378123  0.63330050  0.62886257     0.15000
C1643       C  0.07497645  0.63630898  0.63670070     0.01900
C1644       C  0.08831363  0.64557694  0.61452453    -0.15900
C1645       C  0.08091334  0.65189849  0.58465193    -0.10700
C1646       C  0.05991216  0.64789742  0.57634491     0.08600
C1647       C  0.03800898  0.62641464  0.65212277     0.09600
S1648       S  0.08569499  0.62941514  0.67485324    -0.25100
H1649       H  0.10437811  0.64855530  0.62108325     0.19900
S1650       S  0.04968137  0.65437864  0.53756983    -0.30700
H1651       H  0.03044320  0.63596529  0.59263101     0.10200
C1652       C  0.03072611  0.64003778  0.67595900     0.03400
C1653       C  0.01351741  0.63422031  0.69436198    -0.13000
C1654       C  0.00305548  0.61536554  0.68878048    -0.08700
C1655       C  0.01094477  0.60134574  0.66580778     0.06900
C1656       C  0.02823023  0.60708907  0.64760028    -0.13800
S1657       S  0.04210844  0.66560003  0.68107512    -0.30700
H1658       H  0.00738783  0.64497162  0.71187580     0.11100
S1659       S  0.99968110  0.57602431  0.65853835    -0.27800
H1660       H  0.03381957  0.59664875  0.62922387     0.08300
H1661       H  0.02867507  0.64962463  0.54383255     0.26800
H1662       H  0.02876217  0.67243328  0.70544393     0.21600
H1663       H  0.99361964  0.57254238  0.69015302     0.26900
H1664       H  0.07134269  0.61347774  0.68157307     0.15700
C1665       C  0.89746247  0.32298840  0.67923062    -0.11600
C1666       C  0.90945851  0.31969325  0.65190126     0.15000
C1667       C  0.93030069  0.32675273  0.65118751     0.01900
C1668       C  0.93834432  0.33785224  0.67699613    -0.15900
C1669       C  0.92631663  0.34147843  0.70425748    -0.10700
C1670       C  0.90582584  0.33324665  0.70568126     0.08600
C1671       C  0.89960792  0.31012793  0.62364494     0.09600
S1672       S  0.94748875  0.32194568  0.61810446    -0.25100
H1673       H  0.95420556  0.34357875  0.67581636     0.19900
S1674       S  0.88995464  0.33417099  0.74093616    -0.30700
H1675       H  0.88156880  0.31730566  0.68006989     0.10200
C1676       C  0.89444897  0.28878291  0.62237089     0.03400
C1677       C  0.88677784  0.28028986  0.59393101    -0.13000
C1678       C  0.88391626  0.29278020  0.56682666    -0.08700
C1679       C  0.88896603  0.31425620  0.56852448     0.06900
C1680       C  0.89645448  0.32265607  0.59689236    -0.13800
S1681       S  0.89807291  0.27228038  0.65664213    -0.30700
H1682       H  0.88296875  0.26386932  0.59281984     0.11100
S1683       S  0.88745347  0.33168974  0.53510249    -0.27800
H1684       H  0.90053831  0.33903981  0.59786627     0.08300
H1685       H  0.90636989  0.32873687  0.76157076     0.26800
H1686       H  0.89244061  0.25340137  0.64193064     0.21600
H1687       H  0.89827742  0.31812894  0.51457664     0.26900
H1688       H  0.93854383  0.30281794  0.60909494     0.15700
C1689       C  0.93534901  0.50844850  0.72966375    -0.11600
C1690       C  0.94539067  0.50049003  0.75657785     0.15000
C1691       C  0.95488126  0.51429808  0.77822369     0.01900
C1692       C  0.95461478  0.53569497  0.77208442    -0.15900
C1693       C  0.94453765  0.54386851  0.74518320    -0.10700
C1694       C  0.93453626  0.52992948  0.72394116     0.08600
C1695       C  0.94662806  0.47767898  0.76072141     0.09600
S1696       S  0.96763159  0.50566414  0.81408914    -0.25100
H1697       H  0.96216965  0.54605800  0.78881286     0.19900
S1698       S  0.92100056  0.53826436  0.68873508    -0.30700
H1699       H  0.92811449  0.49781164  0.71298895     0.10200
C1700       C  0.92922990  0.46598302  0.77047527     0.03400
C1701       C  0.93143998  0.44446351  0.77535245    -0.13000
C1702       C  0.95065541  0.43435960  0.77036286    -0.08700
C1703       C  0.96811940  0.44631356  0.76090213     0.06900
C1704       C  0.96582471  0.46773414  0.75582358    -0.13800
S1705       S  0.90436464  0.47853313  0.77730190    -0.30700
H1706       H  0.91805493  0.43541001  0.78271004     0.11100
S1707       S  0.99393858  0.43555095  0.75641610    -0.27800
H1708       H  0.97923520  0.47686281  0.74868163     0.08300
H1709       H  0.90626123  0.54999690  0.70594900     0.26800
H1710       H  0.89312811  0.46032895  0.78455810     0.21600
H1711       H  0.99277759  0.42319034  0.78391536     0.26900
H1712       H  0.95570032  0.48753599  0.81852445     0.15700
C1713       C  0.91251685  0.17550329  0.11840950    -0.11600
C1714       C  0.91537733  0.15383355  0.11852705     0.15000
C1715       C  0.90792248  0.14181741  0.09292905     0.01900
C1716       C  0.89750315  0.15168247  0.06796741    -0.15900
C1717       C  0.89485769  0.17346473  0.06746227    -0.10700
C1718       C  0.90227118  0.18543628  0.09333556     0.08600
C1719       C  0.92483988  0.14415034  0.14679787     0.09600
S1720       S  0.91171440  0.11396948  0.09034043    -0.25100
H1721       H  0.89207380  0.14230511  0.04826194     0.19900
S1722       S  0.89850745  0.21322069  0.09665737    -0.30700
H1723       H  0.91792103  0.18467369  0.13837287     0.10200
C1724       C  0.94620124  0.14636742  0.15365382     0.03400
C1725       C  0.95427807  0.13753254  0.18144422    -0.13000
C1726       C  0.94141508  0.12650308  0.20256466    -0.08700
C1727       C  0.92000063  0.12405754  0.19516378     0.06900
C1728       C  0.91197850  0.13302649  0.16754226    -0.13800
S1729       S  0.96317347  0.16033251  0.12693521    -0.30700
H1730       H  0.97064182  0.13956881  0.18700597     0.11100
S1731       S  0.90209381  0.10943831  0.21936318    -0.27800
H1732       H  0.89554718  0.13129939  0.16207845     0.08300
H1733       H  0.87778668  0.21278312  0.08562483     0.26800
H1734       H  0.98202399  0.15518857  0.14217784     0.21600
H1735       H  0.91574947  0.09240462  0.22327293     0.26900
H1736       H  0.93087798  0.11359021  0.10659064     0.15700
C1737       C  0.77066211  0.19769126  0.99219251    -0.11600
C1738       C  0.76466891  0.20237152  0.02338247     0.15000
C1739       C  0.78012221  0.20672369  0.04631496     0.01900
C1740       C  0.80114812  0.20588734  0.03770513    -0.15900
C1741       C  0.80717720  0.20107703  0.00654406    -0.10700
C1742       C  0.79165917  0.19739754  0.98337888     0.08600
C1743       C  0.74223883  0.20182015  0.03137021     0.09600
S1744       S  0.77409936  0.21339930  0.08686898    -0.25100
H1745       H  0.81291758  0.20889884  0.05559354     0.19900
S1746       S  0.79745556  0.19310289  0.94205405    -0.30700
H1747       H  0.75882999  0.19444400  0.97449134     0.10200
C1748       C  0.72799541  0.21595165  0.01770824     0.03400
C1749       C  0.70675247  0.21422173  0.02485278    -0.13000
C1750       C  0.69936448  0.19884891  0.04578598    -0.08700
C1751       C  0.71391624  0.18524229  0.06041461     0.06900
C1752       C  0.73504588  0.18660387  0.05250541    -0.13800
S1753       S  0.73687512  0.23657522  0.99185033    -0.30700
H1754       H  0.69582410  0.22488436  0.01384957     0.11100
S1755       S  0.70687422  0.16630667  0.09002258    -0.27800
H1756       H  0.74606757  0.17586387  0.06323048     0.08300
H1757       H  0.81333134  0.20820928  0.94069177     0.26800
H1758       H  0.71703115  0.24386147  0.98278790     0.21600
H1759       H  0.69420466  0.18030326  0.10713780     0.26900
H1760       H  0.75495426  0.22325042  0.08036443     0.15700
C1761       C  0.92233662  0.30438867  0.88433024    -0.11600
C1762       C  0.90097260  0.30725743  0.88972583     0.15000
C1763       C  0.89047674  0.32413371  0.87523939     0.01900
C1764       C  0.90153952  0.33744382  0.85502325    -0.15900
C1765       C  0.92286681  0.33425884  0.84905520    -0.10700
C1766       C  0.93341256  0.31771295  0.86441955     0.08600
C1767       C  0.89027964  0.29148995  0.90926966     0.09600
S1768       S  0.86300392  0.32906982  0.88075293    -0.25100
H1769       H  0.89332095  0.35003720  0.84323119     0.19900
S1770       S  0.96099990  0.31283646  0.86003501    -0.30700
H1771       H  0.93041998  0.29147573  0.89554195     0.10200
C1772       C  0.87836642  0.27556716  0.89518494     0.03400
C1773       C  0.87181080  0.25871774  0.91369998    -0.13000
C1774       C  0.87713870  0.25729477  0.94598987    -0.08700
C1775       C  0.88762526  0.27419448  0.96054509     0.06900
C1776       C  0.89436439  0.29091811  0.94191793    -0.13800
S1777       S  0.87313708  0.27564077  0.85307750    -0.30700
H1778       H  0.86367941  0.24594144  0.90238205     0.11100
S1779       S  0.89313640  0.27536016  0.00241765    -0.27800
H1780       H  0.90332198  0.30334469  0.95275646     0.08300
H1781       H  0.96667097  0.33403463  0.85988923     0.26800
H1782       H  0.85939630  0.25855434  0.85291068     0.21600
H1783       H  0.87405353  0.26634686  0.01148509     0.26900
H1784       H  0.86156572  0.32012920  0.91108082     0.15700
C1785       C  0.10152943  0.16970008  0.62356213    -0.11600
C1786       C  0.09565652  0.14865495  0.62295124     0.15000
C1787       C  0.10111923  0.13616931  0.59669245     0.01900
C1788       C  0.11142186  0.14520296  0.57099693    -0.15900
C1789       C  0.11713285  0.16636759  0.57120863    -0.10700
C1790       C  0.11264007  0.17855512  0.59840979     0.08600
C1791       C  0.08404436  0.14006431  0.65014341     0.09600
S1792       S  0.09542566  0.10864679  0.59450568    -0.25100
H1793       H  0.11489629  0.13555778  0.55054932     0.19900
S1794       S  0.12140277  0.20504650  0.60330436    -0.30700
H1795       H  0.09777822  0.17916820  0.64411750     0.10200
C1796       C  0.09423092  0.13544453  0.67885034     0.03400
C1797       C  0.08291928  0.12639586  0.70360510    -0.13000
C1798       C  0.06145250  0.12237431  0.70065727    -0.08700
C1799       C  0.05122204  0.12734902  0.67189577     0.06900
C1800       C  0.06264822  0.13608933  0.64697134    -0.13800
S1801       S  0.12170060  0.14083694  0.68379507    -0.30700
H1802       H  0.09081738  0.12273307  0.72561751     0.11100
S1803       S  0.02391652  0.12244662  0.66513238    -0.27800
H1804       H  0.05486241  0.13965680  0.62477461     0.08300
H1805       H  0.14127780  0.20124721  0.59032471     0.26800
H1806       H  0.12300295  0.13527783  0.71599833     0.21600
H1807       H  0.02413749  0.10267112  0.67958615     0.26900
H1808       H  0.09708075  0.10470281  0.62719069     0.15700
C1809       C  0.05446151  0.00450497  0.76116914    -0.11600
C1810       C  0.03574019  0.99323482  0.76155924     0.15000
C1811       C  0.01662640  0.00401449  0.76502092     0.01900
C1812       C  0.01663947  0.02577318  0.76767435    -0.15900
C1813       C  0.03536246  0.03703826  0.76767739    -0.10700
C1814       C  0.05445436  0.02628806  0.76377038     0.08600
C1815       C  0.03651028  0.97045996  0.75596146     0.09600
S1816       S  0.99170347  0.99100080  0.76597824    -0.25100
H1817       H  0.00193858  0.03393884  0.77057454     0.19900
S1818       S  0.07911513  0.03953792  0.75993924    -0.30700
H1819       H  0.06909953  0.99631950  0.75779837     0.10200
C1820       C  0.03263268  0.96209112  0.72564866     0.03400
C1821       C  0.03241603  0.94037987  0.72146633    -0.13000
C1822       C  0.03602945  0.92687548  0.74707220    -0.08700
C1823       C  0.04094469  0.93530895  0.77714152     0.06900
C1824       C  0.04111406  0.95706047  0.78128146    -0.13800
S1825       S  0.02776334  0.97910524  0.69234939    -0.30700
H1826       H  0.02879569  0.93389236  0.69839648     0.11100
S1827       S  0.04790593  0.91850756  0.80990786    -0.27800
H1828       H  0.04458547  0.96370937  0.80429015     0.08300
H1829       H  0.07106015  0.05688607  0.74351790     0.26800
H1830       H  0.02984902  0.96369899  0.66877018     0.21600
H1831       H  0.05137912  0.93441126  0.83229871     0.26900
H1832       H  0.99892749  0.97198669  0.77840462     0.15700
C1833       C  0.93093411  0.16520286  0.87860615    -0.11600
C1834       C  0.92596372  0.14441553  0.87134551     0.15000
C1835       C  0.90827916  0.13526686  0.88570502     0.01900
C1836       C  0.89663730  0.14673739  0.90784932    -0.15900
C1837       C  0.90197716  0.16735270  0.91562211    -0.10700
C1838       C  0.91888392  0.17688429  0.89979255     0.08600
C1839       C  0.94065917  0.13244104  0.85096665     0.09600
S1840       S  0.89981459  0.10908179  0.87690413    -0.25100
H1841       H  0.88351283  0.13937450  0.91949842     0.19900
S1842       S  0.92554773  0.20403078  0.90478895    -0.30700
H1843       H  0.94443299  0.17240486  0.86772093     0.10200
C1844       C  0.94592192  0.13917809  0.82014491     0.03400
C1845       C  0.96278912  0.12984908  0.80429040    -0.13000
C1846       C  0.97430459  0.11364032  0.81839691    -0.08700
C1847       C  0.96727094  0.10524860  0.84750026     0.06900
C1848       C  0.95099611  0.11508344  0.86383685    -0.13800
S1849       S  0.93157636  0.16003144  0.80123251    -0.30700
H1850       H  0.96771041  0.13602025  0.78164259     0.11100
S1851       S  0.97833054  0.08211581  0.86513667    -0.27800
H1852       H  0.94670114  0.10945938  0.88713263     0.08300
H1853       H  0.90478368  0.21104991  0.90729632     0.26800
H1854       H  0.94045994  0.15761202  0.77094928     0.21600
H1855       H  0.98232914  0.07213017  0.83600240     0.26900
H1856       H  0.90736463  0.10874412  0.84560800     0.15700
C1857       C  0.09202059  0.34068332  0.16903873    -0.11600
C1858       C  0.08240269  0.32338212  0.15491965     0.15000
C1859       C  0.06482207  0.31439660  0.16970086     0.01900
C1860       C  0.05736381  0.32285334  0.19814069    -0.15900
C1861       C  0.06687044  0.34027870  0.21230806    -0.10700
C1862       C  0.08430658  0.34943609  0.19709907     0.08600
C1863       C  0.09108950  0.31509250  0.12486480     0.09600
S1864       S  0.05125690  0.29206437  0.15376613    -0.25100
H1865       H  0.04403273  0.31560033  0.20941003     0.19900
S1866       S  0.09709441  0.37261910  0.21141413    -0.30700
H1867       H  0.10549990  0.34765329  0.15774001     0.10200
C1868       C  0.09017969  0.32674148  0.09656509     0.03400
C1869       C  0.09794908  0.31806993  0.06841339    -0.13000
C1870       C  0.10675093  0.29797132  0.06783435    -0.08700
C1871       C  0.10852269  0.28674899  0.09663256     0.06900
C1872       C  0.10049343  0.29532450  0.12464685    -0.13800
S1873       S  0.07811346  0.35222155  0.09573330    -0.30700
H1874       H  0.09650955  0.32677817  0.04652039     0.11100
S1875       S  0.12146741  0.26185667  0.09960950    -0.27800
H1876       H  0.10170512  0.28658350  0.14657463     0.08300
H1877       H  0.07832976  0.38351711  0.21675954     0.26800
H1878       H  0.08696219  0.35855070  0.06678281     0.21600
H1879       H  0.13766468  0.26727059  0.07879639     0.26900
H1880       H  0.05566234  0.29595934  0.12168496     0.15700
C1881       C  0.22003227  0.26852985  0.02350244    -0.11600
C1882       C  0.23161969  0.28152576  0.00358270     0.15000
C1883       C  0.22150345  0.29226005  0.97875900     0.01900
C1884       C  0.20007871  0.28959129  0.97421753    -0.15900
C1885       C  0.18824389  0.27677158  0.99435746    -0.10700
C1886       C  0.19852470  0.26622972  0.01951942     0.08600
C1887       C  0.25438912  0.28272268  0.00827196     0.09600
S1888       S  0.23502680  0.30964497  0.95220692    -0.25100
H1889       H  0.19257732  0.29784410  0.95488118     0.19900
S1890       S  0.18531425  0.25001977  0.04788967    -0.30700
H1891       H  0.22784087  0.26020932  0.04251555     0.10200
C1892       C  0.26311839  0.29278983  0.03484261     0.03400
C1893       C  0.28484732  0.29357636  0.03805139    -0.13000
C1894       C  0.29803659  0.28426270  0.01547519    -0.08700
C1895       C  0.28912597  0.27435450  0.98869647     0.06900
C1896       C  0.26745403  0.27352903  0.98561094    -0.13800
S1897       S  0.24664490  0.30482982  0.06444875    -0.30700
H1898       H  0.29159291  0.30115204  0.05860755     0.11100
S1899       S  0.30435414  0.26306924  0.95711928    -0.27800
H1900       H  0.26066443  0.26585288  0.96514978     0.08300
H1901       H  0.17179055  0.26623548  0.05703555     0.26800
H1902       H  0.26266639  0.31026480  0.08571845     0.21600
H1903       H  0.31877314  0.27957910  0.95609238     0.26900
H1904       H  0.25015657  0.31625450  0.97416454     0.15700
C1905       C  0.08838654  0.16934954  0.84972296    -0.11600
C1906       C  0.08844406  0.16573978  0.88250874     0.15000
C1907       C  0.07923416  0.14734354  0.89443669     0.01900
C1908       C  0.06911977  0.13366393  0.87357648    -0.15900
C1909       C  0.06832042  0.13776203  0.84092146    -0.10700
C1910       C  0.07893092  0.15534507  0.82881115     0.08600
C1911       C  0.09629271  0.18250733  0.90353300     0.09600
S1912       S  0.07954368  0.14065607  0.93596092    -0.25100
H1913       H  0.06135103  0.12002071  0.88302181     0.19900
S1914       S  0.08151141  0.16045796  0.78695200    -0.30700
H1915       H  0.09561655  0.18331937  0.84037526     0.10200
C1916       C  0.11730116  0.18896867  0.90297156     0.03400
C1917       C  0.12337955  0.20649230  0.92073752    -0.13000
C1918       C  0.10879262  0.21785058  0.93871437    -0.08700
C1919       C  0.08771911  0.21132294  0.93895060     0.06900
C1920       C  0.08183146  0.19356581  0.92194684    -0.13800
S1921       S  0.13634679  0.17485338  0.87974009    -0.30700
H1922       H  0.13949554  0.21149567  0.92040380     0.11100
S1923       S  0.06717288  0.22609393  0.95766255    -0.27800
H1924       H  0.06556662  0.18897734  0.92164117     0.08300
H1925       H  0.08355676  0.13931987  0.77845897     0.26800
H1926       H  0.15293262  0.18885811  0.88441365     0.21600
H1927       H  0.07380836  0.24531778  0.94516237     0.26900
H1928       H  0.09789052  0.15157109  0.94351906     0.15700
C1929       C  0.04196187  0.33578075  0.82509257    -0.11600
C1930       C  0.04345821  0.33993876  0.85765207     0.15000
C1931       C  0.02949902  0.35428213  0.87163032     0.01900
C1932       C  0.01334095  0.36274819  0.85347106    -0.15900
C1933       C  0.01079080  0.35752836  0.82129222    -0.10700
C1934       C  0.02602060  0.34462685  0.80666354     0.08600
C1935       C  0.05842147  0.32778623  0.87703066     0.09600
S1936       S  0.03067969  0.36148412  0.91299051    -0.25100
H1937       H  0.00215457  0.37286961  0.86510314     0.19900
S1938       S  0.02579777  0.33823606  0.76506338    -0.30700
H1939       H  0.05291935  0.32507509  0.81416885     0.10200
C1940       C  0.05140225  0.31210969  0.89775362     0.03400
C1941       C  0.06576153  0.30175560  0.91720990    -0.13000
C1942       C  0.08719123  0.30650983  0.91639976    -0.08700
C1943       C  0.09425631  0.32164180  0.89437858     0.06900
C1944       C  0.07978656  0.33221855  0.87523212    -0.13800
S1945       S  0.02411883  0.30505870  0.89923405    -0.30700
H1946       H  0.06014245  0.28987392  0.93324855     0.11100
S1947       S  0.12130414  0.32833442  0.88943764    -0.27800
H1948       H  0.08518264  0.34409148  0.85895203     0.08300
H1949       H  0.02168570  0.35886060  0.75543280     0.26800
H1950       H  0.02545023  0.29200875  0.92596228     0.21600
H1951       H  0.12750404  0.30752782  0.88424698     0.26900
H1952       H  0.05219527  0.35808466  0.91688032     0.15700
loop_ 
_geom_bond_atom_site_label_1 
_geom_bond_atom_site_label_2 
_geom_bond_distance 
_geom_bond_site_symmetry_2 
_ccdc_geom_bond_type 
In1           O3   2.247       .  S
In1           O4   2.239       .  S
In1          O12   2.233   1_556  S
In1           O6   2.242       .  S
In1           O8   2.224       .  S
In1           O9   2.251   1_556  S
In1          O10   2.261       .  S
In1          O13   2.243   1_556  S
C2            O8   1.260       .  A
C2           O10   1.263       .  A
C2         C1942   1.489       .  S
O3           C11   1.261       .  A
O4           C11   1.261       .  A
C5           O12   1.259   1_556  A
C5            O6   1.263       .  A
C5         C1885   1.484       .  S
C7            O9   1.261       .  A
C7           O13   1.261       .  A
C7         C1870   1.483       .  S
C11        C1918   1.479       .  S
In14         O16   2.223       .  S
In14         O17   2.248       .  S
In14         O25   2.243       .  S
In14         O19   2.241       .  S
In14         O21   2.253       .  S
In14         O22   2.254   1_455  S
In14         O23   2.227       .  S
In14         O26   2.234       .  S
C15          O21   1.264       .  A
C15          O23   1.260       .  A
C15        C1909   1.475       .  S
O16          C24   1.260       .  A
O17          C24   1.264       .  A
C18          O25   1.260       .  A
C18          O19   1.261       .  A
C18        C1813   1.473       .  S
C20          O22   1.263       .  A
C20          O26   1.260   1_655  A
C20        C1846   1.484       .  S
C24        C1798   1.477       .  S
In27         O29   2.225       .  S
In27         O30   2.246       .  S
In27         O38   2.229   1_556  S
In27         O32   2.233       .  S
In27         O34   2.257       .  S
In27         O35   2.238   1_556  S
In27         O36   2.232       .  S
In27         O39   2.235   1_556  S
C28          O34   1.262       .  A
C28          O36   1.259       .  A
C28        C1837   1.478       .  S
O29          C37   1.260       .  A
O30          C37   1.262       .  A
C31          O38   1.261   1_556  A
C31          O32   1.262       .  A
C31        C1741   1.473   1_556  S
C33          O35   1.261       .  A
C33          O39   1.261       .  A
C33        C1717   1.478       .  S
C37        C1774   1.480       .  S
In40         O42   2.243       .  S
In40         O43   2.249       .  S
In40         O51   2.246       .  S
In40         O45   2.241       .  S
In40         O47   2.253       .  S
In40         O48   2.245       .  S
In40         O49   2.220       .  S
In40         O52   2.234       .  S
C41          O47   1.263       .  A
C41          O49   1.258       .  A
C41        C1765   1.473       .  S
O42          C50   1.258       .  A
O43          C50   1.261       .  A
C44          O51   1.260       .  A
C44          O45   1.260       .  A
C44        C1702   1.479       .  S
C46          O48   1.262       .  A
C46          O52   1.262       .  A
C46        C1933   1.488   1_655  S
C50        C1669   1.481       .  S
In53         O55   2.244       .  S
In53         O56   2.232       .  S
In53         O64   2.235       .  S
In53         O58   2.246       .  S
In53         O60   2.259       .  S
In53         O61   2.238       .  S
In53         O62   2.215       .  S
In53         O65   2.230       .  S
C54          O60   1.264       .  A
C54          O62   1.258       .  A
C54        C1645   1.478       .  S
O55          C63   1.261       .  A
O56          C63   1.260       .  A
C57          O64   1.260       .  A
C57          O58   1.263       .  A
C57        C1606   1.481       .  S
C59          O61   1.261       .  A
C59          O65   1.261       .  A
C59        C1573   1.480       .  S
C63        C1621   1.482       .  S
In66         O68   2.240       .  S
In66         O69   2.238       .  S
In66         O77   2.240       .  S
In66         O71   2.254       .  S
In66         O73   2.254       .  S
In66         O74   2.250   1_455  S
In66         O75   2.226       .  S
In66         O78   2.236       .  S
C67          O73   1.264       .  A
C67          O75   1.259       .  A
C67        C1630   1.478       .  S
O68          C76   1.261       .  A
O69          C76   1.263       .  A
C70          O77   1.260       .  A
C70          O71   1.262       .  A
C70        C1822   1.478       .  S
C72          O74   1.263       .  A
C72          O78   1.260   1_655  A
C72        C1549   1.487       .  S
C76        C1534   1.481       .  S
In79         O81   2.236       .  S
In79         O82   2.246       .  S
In79         O90   2.230       .  S
In79         O84   2.236       .  S
In79         O86   2.260       .  S
In79         O87   2.241       .  S
In79         O88   2.225       .  S
In79         O91   2.233       .  S
C80          O86   1.264       .  A
C80          O88   1.260       .  A
C80        C1558   1.480       .  S
O81          C89   1.261       .  A
O82          C89   1.263       .  A
C83          O90   1.259       .  A
C83          O84   1.264       .  A
C83        C1486   1.479       .  S
C85          O87   1.264       .  A
C85          O91   1.259       .  A
C85        C1462   1.486       .  S
C89        C1501   1.487       .  S
In92         O94   2.239       .  S
In92         O95   2.249       .  S
In92        O103   2.235       .  S
In92         O97   2.234       .  S
In92         O99   2.254       .  S
In92        O100   2.245       .  S
In92        O101   2.234       .  S
In92        O104   2.242       .  S
C93          O99   1.260       .  A
C93         O101   1.259       .  A
C93        C1510   1.475       .  S
O94         C102   1.260       .  A
O95         C102   1.261       .  A
C96         O103   1.262       .  A
C96          O97   1.259       .  A
C96        C1693   1.482       .  S
C98         O100   1.260       .  A
C98         O104   1.259       .  A
C98        C1654   1.474   1_655  S
C102       C1438   1.477       .  S
In105       O107   2.235       .  S
In105       O108   2.247       .  S
In105       O116   2.251       .  S
In105       O110   2.254       .  S
In105       O112   2.263       .  S
In105       O113   2.247       .  S
In105       O114   2.233       .  S
In105       O117   2.254       .  S
C106        O112   1.263       .  A
C106        O114   1.260       .  A
C106       C1390   1.481       .  S
O107        C115   1.260       .  A
O108        C115   1.262       .  A
C109        O116   1.259       .  A
C109        O110   1.259       .  A
C109       C1357   1.489       .  S
C111        O113   1.258       .  A
C111        O117   1.260       .  A
C111       C1405   1.481       .  S
C115       C1333   1.482       .  S
In118       O120   2.233       .  S
In118       O121   2.231       .  S
In118       O129   2.236       .  S
In118       O123   2.228       .  S
In118       O125   2.237       .  S
In118       O126   2.233       .  S
In118       O127   2.242       .  S
In118       O130   2.231       .  S
C119        O125   1.260       .  A
C119        O127   1.259       .  A
C119       C1414   1.484       .  S
O120        C128   1.261       .  A
O121        C128   1.261       .  A
C122        O129   1.259       .  A
C122        O123   1.260       .  A
C122       C1477   1.476       .  S
C124        O126   1.259       .  A
C124        O130   1.259       .  A
C124       C1285   1.472       .  S
C128       C1309   1.476       .  S
In131       O133   2.241       .  S
In131       O134   2.235       .  S
In131       O142   2.237       .  S
In131       O136   2.250       .  S
In131       O138   2.267       .  S
In131       O139   2.235       .  S
In131       O140   2.226       .  S
In131       O143   2.230       .  S
C132        O138   1.263       .  A
C132        O140   1.260       .  A
C132       C1261   1.486       .  S
O133        C141   1.262       .  A
O134        C141   1.259       .  A
C135        O142   1.258       .  A
C135        O136   1.263       .  A
C135       C1597   1.487       .  S
C137        O139   1.260       .  A
C137        O143   1.261       .  A
C137       C1237   1.473       .  S
C141       C1381   1.478       .  S
In144       O146   2.248       .  S
In144       O147   2.235       .  S
In144       O155   2.242       .  S
In144       O149   2.230       .  S
In144       O151   2.252       .  S
In144       O152   2.242       .  S
In144       O153   2.218       .  S
In144       O156   2.247       .  S
C145        O151   1.261       .  A
C145        O153   1.261       .  A
C145       C1318   1.484       .  S
O146        C154   1.260       .  A
O147        C154   1.260       .  A
C148        O155   1.260       .  A
C148        O149   1.259       .  A
C148       C1222   1.475       .  S
C150        O152   1.260       .  A
C150        O156   1.261       .  A
C150       C1270   1.484       .  S
C154       C1189   1.478       .  S
In157       O159   2.250       .  S
In157       O160   2.245       .  S
In157       O168   2.240       .  S
In157       O162   2.238       .  S
In157       O164   2.253       .  S
In157       O165   2.238   1_554  S
In157       O166   2.223       .  S
In157       O169   2.247       .  S
C158        O164   1.262       .  A
C158        O166   1.260       .  A
C158       C1165   1.472       .  S
O159        C167   1.259       .  A
O160        C167   1.259       .  A
C161        O168   1.258       .  A
C161        O162   1.260       .  A
C161       C1894   1.477       .  S
C163        O165   1.261       .  A
C163        O169   1.261   1_556  A
C163       C1117   1.479       .  S
C167       C1141   1.482       .  S
In170       O172   2.232       .  S
In170       O173   2.253       .  S
In170       O181   2.235       .  S
In170       O175   2.243       .  S
In170       O177   2.265       .  S
In170       O178   2.248       .  S
In170       O179   2.227       .  S
In170       O182   2.245       .  S
C171        O177   1.264       .  A
C171        O179   1.257       .  A
C171       C1102   1.487       .  S
O172        C180   1.259       .  A
O173        C180   1.263       .  A
C174        O181   1.261       .  A
C174        O175   1.263       .  A
C174       C1213   1.485       .  S
C176        O178   1.262       .  A
C176        O182   1.261       .  A
C176       C1174   1.477       .  S
C180       C1069   1.483       .  S
In183       O185   2.246       .  S
In183       O186   2.245       .  S
In183       O194   2.240       .  S
In183       O188   2.263       .  S
In183       O190   2.261       .  S
In183       O191   2.245       .  S
In183       O192   2.219       .  S
In183       O195   2.246       .  S
C184        O190   1.264       .  A
C184        O192   1.259       .  A
C184       C1150   1.479       .  S
O185        C193   1.261       .  A
O186        C193   1.260       .  A
C187        O194   1.259       .  A
C187        O188   1.261       .  A
C187       C1366   1.482       .  S
C189        O191   1.260       .  A
C189        O195   1.261       .  A
C189       C1045   1.478       .  S
C193       C1030   1.481       .  S
In196       O198   2.240       .  S
In196       O199   2.253       .  S
In196       O207   2.231       .  S
In196       O201   2.247       .  S
In196       O203   2.256       .  S
In196       O204   2.249       .  S
In196       O205   2.217       .  S
In196       O208   2.222       .  S
C197        O203   1.262       .  A
C197        O205   1.257       .  A
C197       C1054   1.465       .  S
O198        C206   1.261       .  A
O199        C206   1.261       .  A
C200        O207   1.260       .  A
C200        O201   1.260       .  A
C200       C1750   1.483       .  S
C202        O204   1.265   1_556  A
C202        O208   1.260   1_556  A
C202       C1006   1.482       .  S
C206       C1093   1.491       .  S
In209       O211   2.241       .  S
In209       O212   2.241       .  S
In209       O220   2.228       .  S
In209       O214   2.240       .  S
In209       O216   2.258       .  S
In209       O217   2.237       .  S
In209       O218   2.210       .  S
In209       O221   2.230       .  S
C210        O216   1.263       .  A
C210        O218   1.260       .  A
C210        C958   1.484       .  S
O211        C219   1.260       .  A
O212        C219   1.261       .  A
C213        O220   1.257       .  A
C213        O214   1.262       .  A
C213        C934   1.481       .  S
C215        O217   1.261       .  A
C215        O221   1.262       .  A
C215        C973   1.481       .  S
C219       C1078   1.477       .  S
In222       O224   2.238       .  S
In222       O225   2.253       .  S
In222       O233   2.237       .  S
In222       O227   2.242       .  S
In222       O229   2.257       .  S
In222       O230   2.245       .  S
In222       O231   2.214       .  S
In222       O234   2.240       .  S
C223        O229   1.262       .  A
C223        O231   1.261       .  A
C223        C982   1.478       .  S
O224        C232   1.258       .  A
O225        C232   1.261       .  A
C226        O233   1.259       .  A
C226        O227   1.260       .  A
C226        C886   1.472       .  S
C228        O230   1.261       .  A
C228        O234   1.261       .  A
C228        C997   1.478       .  S
C232        C901   1.484       .  S
In235       O237   2.237       .  S
In235       O238   2.245       .  S
In235       O246   2.245       .  S
In235       O240   2.244       .  S
In235       O242   2.247       .  S
In235       O243   2.249       .  S
In235       O244   2.232       .  S
In235       O247   2.233       .  S
C236        O242   1.262       .  A
C236        O244   1.260       .  A
C236        C853   1.475       .  S
O237        C245   1.261       .  A
O238        C245   1.261       .  A
C239        O246   1.259       .  A
C239        O240   1.260       .  A
C239        C829   1.481       .  S
C241        O243   1.261       .  A
C241        O247   1.258       .  A
C241       C1126   1.479       .  S
C245        C949   1.479       .  S
In248       O250   2.235       .  S
In248       O251   2.250       .  S
In248       O259   2.239       .  S
In248       O253   2.253       .  S
In248       O255   2.263       .  S
In248       O256   2.233       .  S
In248       O257   2.234       .  S
In248       O260   2.244       .  S
C249        O255   1.264       .  A
C249        O257   1.259       .  A
C249        C910   1.482       .  S
O250        C258   1.261       .  A
O251        C258   1.260       .  A
C252        O259   1.260       .  A
C252        O253   1.263       .  A
C252        C805   1.483       .  S
C254        O256   1.261       .  A
C254        O260   1.261       .  A
C254        C862   1.485       .  S
C258       C1021   1.486       .  S
In261       O263   2.238       .  S
In261       O264   2.237   1_554  S
In261       O272   2.236       .  S
In261       O266   2.245       .  S
In261       O268   2.255       .  S
In261       O269   2.235       .  S
In261       O270   2.226       .  S
In261       O273   2.240       .  S
C262        O268   1.261       .  A
C262        O270   1.258       .  A
C262        C781   1.476       .  S
O263        C271   1.261   1_554  A
O264        C271   1.261       .  A
C265        O272   1.260       .  A
C265        O266   1.262       .  A
C265        C733   1.479       .  S
C267        O269   1.258       .  A
C267        O273   1.260       .  A
C267        C757   1.480       .  S
C271       C1525   1.479       .  S
In274       O276   2.234   1_455  S
In274       O277   2.239   1_455  S
In274       O285   2.230       .  S
In274       O279   2.249       .  S
In274       O281   2.219       .  S
In274       O282   2.230       .  S
In274       O283   2.253       .  S
In274       O286   2.242       .  S
C275        O281   1.259       .  A
C275        O283   1.262       .  A
C275        C766   1.477       .  S
O276        C284   1.262       .  A
O277        C284   1.261       .  A
C278        O285   1.260       .  A
C278        O279   1.261       .  A
C278        C685   1.477       .  S
C280        O282   1.260       .  A
C280        O286   1.262       .  A
C280       C1582   1.475       .  S
C284        C709   1.483       .  S
In287       O289   2.233       .  S
In287       O290   2.228       .  S
In287       O298   2.240       .  S
In287       O292   2.232       .  S
In287       O294   2.256       .  S
In287       O295   2.241       .  S
In287       O296   2.223       .  S
In287       O299   2.235       .  S
C288        O294   1.263       .  A
C288        O296   1.259       .  A
C288        C661   1.472       .  S
O289        C297   1.262       .  A
O290        C297   1.264       .  A
C291        O298   1.260       .  A
C291        O292   1.260       .  A
C291        C646   1.484       .  S
C293        O295   1.260       .  A
C293        O299   1.259       .  A
C293       C1453   1.477       .  S
C297        C790   1.480   1_655  S
In300       O302   2.242       .  S
In300       O303   2.243       .  S
In300       O311   2.232       .  S
In300       O305   2.233       .  S
In300       O307   2.258       .  S
In300       O308   2.242       .  S
In300       O309   2.213       .  S
In300       O312   2.235       .  S
C301        O307   1.263       .  A
C301        O309   1.257       .  A
C301        C718   1.478       .  S
O302        C310   1.260   1_554  A
O303        C310   1.260   1_554  A
C304        O311   1.260       .  A
C304        O305   1.262       .  A
C304        C613   1.481       .  S
C306        O308   1.262       .  A
C306        O312   1.259       .  A
C306        C670   1.485       .  S
C310       C1429   1.473       .  S
In313       O315   2.231       .  S
In313       O316   2.245       .  S
In313       O324   2.225       .  S
In313       O318   2.258       .  S
In313       O320   2.250       .  S
In313       O321   2.243       .  S
In313       O322   2.230       .  S
In313       O325   2.238       .  S
C314        O320   1.263       .  A
C314        O322   1.259       .  A
C314        C589   1.474       .  S
O315        C323   1.262       .  A
O316        C323   1.262       .  A
C317        O324   1.261       .  A
C317        O318   1.263       .  A
C317        C814   1.482       .  S
C319        O321   1.261       .  A
C319        O325   1.260       .  A
C319        C565   1.482       .  S
C323       C1789   1.481       .  S
In326       O328   2.241       .  S
In326       O329   2.237       .  S
In326       O337   2.227       .  S
In326       O331   2.254       .  S
In326       O333   2.253       .  S
In326       O334   2.249       .  S
In326       O335   2.228       .  S
In326       O338   2.238       .  S
C327        O333   1.263       .  A
C327        O335   1.260       .  A
C327        C574   1.483       .  S
O328        C336   1.262       .  A
O329        C336   1.262       .  A
C330        O337   1.259       .  A
C330        O331   1.263       .  A
C330        C694   1.479       .  S
C332        O334   1.262       .  A
C332        O338   1.259       .  A
C332       C1861   1.485       .  S
C336        C541   1.479   1_455  S
In339       O341   2.236       .  S
In339       O342   2.247       .  S
In339       O350   2.219       .  S
In339       O344   2.244       .  S
In339       O346   2.260       .  S
In339       O347   2.235       .  S
In339       O348   2.211       .  S
In339       O351   2.241       .  S
C340        O346   1.262       .  A
C340        O348   1.257       .  A
C340        C550   1.473       .  S
O341        C349   1.260       .  A
O342        C349   1.261       .  A
C343        O350   1.261       .  A
C343        O344   1.260       .  A
C343        C925   1.477       .  S
C345        O347   1.260       .  A
C345        O351   1.260       .  A
C345        C517   1.477       .  S
C349       C1678   1.483       .  S
In352       O354   2.241       .  S
In352       O355   2.234       .  S
In352       O363   2.242       .  S
In352       O357   2.229       .  S
In352       O359   2.249       .  S
In352       O360   2.237       .  S
In352       O361   2.226       .  S
In352       O364   2.237       .  S
C353        O359   1.261       .  A
C353        O361   1.259       .  A
C353        C526   1.473       .  S
O354        C362   1.260   1_655  A
O355        C362   1.259   1_655  A
C356        O363   1.262       .  A
C356        O357   1.259       .  A
C356        C637   1.479       .  S
C358        O360   1.260       .  A
C358        O364   1.259       .  A
C358       C1726   1.479       .  S
C362        C598   1.473       .  S
In365       O367   2.228   1_556  S
In365       O368   2.254   1_556  S
In365       O376   2.246       .  S
In365       O370   2.245   1_556  S
In365       O372   2.252       .  S
In365       O373   2.246       .  S
In365       O374   2.246       .  S
In365       O377   2.236       .  S
C366        O372   1.262       .  A
C366        O374   1.260       .  A
C366        C493   1.483       .  S
O367        C375   1.259       .  A
O368        C375   1.262       .  A
C369        O376   1.261       .  A
C369        O370   1.262   1_556  A
C369        C742   1.485   1_556  S
C371        O373   1.262       .  A
C371        O377   1.259       .  A
C371        C469   1.477       .  S
C375       C1342   1.475       .  S
In378       O380   2.216   1_556  S
In378       O381   2.242   1_556  S
In378       O389   2.220   1_556  S
In378       O383   2.247       .  S
In378       O385   2.264       .  S
In378       O386   2.219       .  S
In378       O387   2.230       .  S
In378       O390   2.230       .  S
C379        O385   1.265       .  A
C379        O387   1.260       .  A
C379        C445   1.484       .  S
O380        C388   1.261       .  A
O381        C388   1.261       .  A
C382        O389   1.260   1_556  A
C382        O383   1.264       .  A
C382        C622   1.482       .  S
C384        O386   1.262       .  A
C384        O390   1.263       .  A
C384        C421   1.474       .  S
C388       C1198   1.472       .  S
In391       O393   2.231       .  S
In391       O394   2.254       .  S
In391       O402   2.239       .  S
In391       O396   2.247       .  S
In391       O398   2.244       .  S
In391       O399   2.242       .  S
In391       O400   2.222       .  S
In391       O403   2.230       .  S
C392        O398   1.262       .  A
C392        O400   1.260       .  A
C392        C478   1.471       .  S
O393        C401   1.258       .  A
O394        C401   1.260       .  A
C395        O402   1.260       .  A
C395        O396   1.260       .  A
C395        C838   1.477       .  S
C397        O399   1.262       .  A
C397        O403   1.260       .  A
C397       C1246   1.475       .  S
C401        C454   1.478       .  S
In404       O406   2.248       .  S
In404       O407   2.235       .  S
In404       O415   2.244       .  S
In404       O409   2.246       .  S
In404       O411   2.252       .  S
In404       O412   2.238       .  S
In404       O413   2.230       .  S
In404       O416   2.228       .  S
C405        O411   1.263       .  A
C405        O413   1.259       .  A
C405        C430   1.478       .  S
O406        C414   1.261       .  A
O407        C414   1.259       .  A
C408        O415   1.260       .  A
C408        O409   1.261       .  A
C408        C877   1.483       .  S
C410        O412   1.260       .  A
C410        O416   1.259       .  A
C410       C1294   1.465       .  S
C414        C502   1.477       .  S
C417        C418   1.400       .  A
C417        C422   1.398       .  A
C417        H427   1.083       .  S
C418        C423   1.472       .  S
C418        C419   1.411       .  A
C419        C420   1.395       .  A
C419        S424   1.805       .  S
C420        C421   1.404       .  A
C420        H425   1.083       .  S
C421        C422   1.414       .  A
C422        S426   1.803       .  S
C423        C428   1.408       .  A
C423        C432   1.399       .  A
S424        H440   1.405       .  S
S426        H437   1.408   1_556  S
C428        C429   1.400       .  A
C428        S433   1.809       .  S
C429        C430   1.406       .  A
C429        H434   1.083       .  S
C430        C431   1.416       .  A
C431        C432   1.398       .  A
C431        S435   1.800       .  S
C432        H436   1.084       .  S
S433        H438   1.406       .  S
S435        H439   1.408       .  S
C441        C442   1.403       .  A
C441        C446   1.402       .  A
C441        H451   1.084       .  S
C442        C447   1.480       .  S
C442        C443   1.411       .  A
C443        C444   1.398       .  A
C443        S448   1.805       .  S
C444        C445   1.406       .  A
C444        H449   1.084       .  S
C445        C446   1.415       .  A
C446        S450   1.800       .  S
C447        C452   1.409       .  A
C447        C456   1.400       .  A
S448        H464   1.406       .  S
S450        H461   1.407       .  S
C452        C453   1.405       .  A
C452        S457   1.805       .  S
C453        C454   1.405       .  A
C453        H458   1.084       .  S
C454        C455   1.416       .  A
C455        C456   1.396       .  A
C455        S459   1.804       .  S
C456        H460   1.085       .  S
S457        H462   1.407       .  S
S459        H463   1.408       .  S
C465        C466   1.402       .  A
C465        C470   1.399       .  A
C465        H475   1.084       .  S
C466        C471   1.476       .  S
C466        C467   1.413       .  A
C467        C468   1.397       .  A
C467        S472   1.806       .  S
C468        C469   1.403       .  A
C468        H473   1.084       .  S
C469        C470   1.415       .  A
C470        S474   1.803       .  S
C471        C476   1.409       .  A
C471        C480   1.401       .  A
S472        H488   1.405       .  S
S474        H485   1.407       .  S
C476        C477   1.402       .  A
C476        S481   1.805       .  S
C477        C478   1.404       .  A
C477        H482   1.082       .  S
C478        C479   1.412       .  A
C479        C480   1.395       .  A
C479        S483   1.804       .  S
C480        H484   1.084       .  S
S481        H486   1.407       .  S
S483        H487   1.407       .  S
C489        C490   1.401       .  A
C489        C494   1.403       .  A
C489        H499   1.083       .  S
C490        C495   1.478       .  S
C490        C491   1.411       .  A
C491        C492   1.398       .  A
C491        S496   1.806       .  S
C492        C493   1.405       .  A
C492        H497   1.084       .  S
C493        C494   1.416       .  A
C494        S498   1.801       .  S
C495        C500   1.408       .  A
C495        C504   1.403       .  A
S496        H512   1.405       .  S
S498        H509   1.408       .  S
C500        C501   1.399       .  A
C500        S505   1.807       .  S
C501        C502   1.404       .  A
C501        H506   1.083       .  S
C502        C503   1.414       .  A
C503        C504   1.402       .  A
C503        S507   1.803       .  S
C504        H508   1.084       .  S
S505        H510   1.406       .  S
S507        H511   1.408       .  S
C513        C514   1.403       .  A
C513        C518   1.398       .  A
C513        H523   1.085       .  S
C514        C519   1.479       .  S
C514        C515   1.411       .  A
C515        C516   1.396       .  A
C515        S520   1.804       .  S
C516        C517   1.404       .  A
C516        H521   1.084       .  S
C517        C518   1.414       .  A
C518        S522   1.802       .  S
C519        C524   1.410       .  A
C519        C528   1.402       .  A
S520        H536   1.406       .  S
S522        H533   1.408       .  S
C524        C525   1.403       .  A
C524        S529   1.806       .  S
C525        C526   1.405       .  A
C525        H530   1.083       .  S
C526        C527   1.413       .  A
C527        C528   1.394       .  A
C527        S531   1.805       .  S
C528        H532   1.085       .  S
S529        H534   1.407       .  S
S531        H535   1.408       .  S
C537        C538   1.401       .  A
C537        C542   1.399       .  A
C537        H547   1.083       .  S
C538        C543   1.477       .  S
C538        C539   1.411       .  A
C539        C540   1.398       .  A
C539        S544   1.805       .  S
C540        C541   1.405       .  A
C540        H545   1.083   1_655  S
C541        C542   1.415       .  A
C542        S546   1.801       .  S
C543        C548   1.410       .  A
C543        C552   1.400       .  A
S544        H560   1.407       .  S
S546        H557   1.408       .  S
C548        C549   1.405       .  A
C548        S553   1.805       .  S
C549        C550   1.405       .  A
C549        H554   1.083       .  S
C550        C551   1.414       .  A
C551        C552   1.393       .  A
C551        S555   1.805       .  S
C552        H556   1.085       .  S
S553        H558   1.407       .  S
S555        H559   1.408       .  S
C561        C562   1.401       .  A
C561        C566   1.400       .  A
C561        H571   1.083       .  S
C562        C567   1.476       .  S
C562        C563   1.409       .  A
C563        C564   1.397       .  A
C563        S568   1.803       .  S
C564        C565   1.406       .  A
C564        H569   1.083       .  S
C565        C566   1.416       .  A
C566        S570   1.802       .  S
C567        C572   1.407       .  A
C567        C576   1.401       .  A
S568        H584   1.405       .  S
S570        H581   1.408       .  S
C572        C573   1.399       .  A
C572        S577   1.809       .  S
C573        C574   1.406       .  A
C573        H578   1.082       .  S
C574        C575   1.417       .  A
C575        C576   1.402       .  A
C575        S579   1.798       .  S
C576        H580   1.083       .  S
S577        H582   1.406       .  S
S579        H583   1.407       .  S
C585        C586   1.400       .  A
C585        C590   1.399       .  A
C585        H595   1.086       .  S
C586        C591   1.473       .  S
C586        C587   1.412       .  A
C587        C588   1.397       .  A
C587        S592   1.806       .  S
C588        C589   1.403       .  A
C588        H593   1.085       .  S
C589        C590   1.414       .  A
C590        S594   1.802       .  S
C591        C596   1.408       .  A
C591        C600   1.401       .  A
S592        H608   1.404       .  S
S594        H605   1.408       .  S
C596        C597   1.399       .  A
C596        S601   1.807       .  S
C597        C598   1.404       .  A
C597        H602   1.083       .  S
C598        C599   1.413       .  A
C599        C600   1.398       .  A
C599        S603   1.803       .  S
C600        H604   1.084       .  S
S601        H606   1.407       .  S
S603        H607   1.407       .  S
C609        C610   1.399   1_556  A
C609        C614   1.396       .  A
C609        H619   1.086       .  S
C610        C615   1.472       .  S
C610        C611   1.409       .  A
C611        C612   1.397       .  A
C611        S616   1.804       .  S
C612        C613   1.407       .  A
C612        H617   1.084       .  S
C613        C614   1.418   1_554  A
C614        S618   1.801       .  S
C615        C620   1.405       .  A
C615        C624   1.400   1_554  A
S616        H632   1.405       .  S
S618        H629   1.407       .  S
C620        C621   1.400       .  A
C620        S625   1.808       .  S
C621        C622   1.409   1_554  A
C621        H626   1.082       .  S
C622        C623   1.416       .  A
C623        C624   1.399       .  A
C623        S627   1.800       .  S
C624        H628   1.083       .  S
S625        H630   1.406       .  S
S627        H631   1.408       .  S
C633        C634   1.400   1_545  A
C633        C638   1.397       .  A
C633        H643   1.084       .  S
C634        C639   1.474       .  S
C634        C635   1.411   1_565  A
C635        C636   1.398       .  A
C635        S640   1.806   1_645  S
C636        C637   1.405       .  A
C636        H641   1.083       .  S
C637        C638   1.417       .  A
C638        S642   1.802       .  S
C639        C644   1.407       .  A
C639        C648   1.398       .  A
S640        H656   1.405   1_455  S
S642        H653   1.408       .  S
C644        C645   1.402       .  A
C644        S649   1.807       .  S
C645        C646   1.409       .  A
C645        H650   1.083       .  S
C646        C647   1.418       .  A
C647        C648   1.395       .  A
C647        S651   1.801       .  S
C648        H652   1.085       .  S
S649        H654   1.407       .  S
S651        H655   1.407       .  S
C657        C658   1.402       .  A
C657        C662   1.397       .  A
C657        H667   1.085       .  S
C658        C663   1.480       .  S
C658        C659   1.412       .  A
C659        C660   1.400       .  A
C659        S664   1.803       .  S
C660        C661   1.403       .  A
C660        H665   1.084       .  S
C661        C662   1.414       .  A
C662        S666   1.805       .  S
C663        C668   1.407       .  A
C663        C672   1.401       .  A
S664        H680   1.406       .  S
S666        H677   1.407       .  S
C668        C669   1.402       .  A
C668        S673   1.807       .  S
C669        C670   1.407       .  A
C669        H674   1.082       .  S
C670        C671   1.418       .  A
C671        C672   1.398       .  A
C671        S675   1.802       .  S
C672        H676   1.084       .  S
S673        H678   1.407       .  S
S675        H679   1.408       .  S
C681        C682   1.401       .  A
C681        C686   1.397       .  A
C681        H691   1.085       .  S
C682        C687   1.480       .  S
C682        C683   1.413       .  A
C683        C684   1.400       .  A
C683        S688   1.805       .  S
C684        C685   1.404       .  A
C684        H689   1.084       .  S
C685        C686   1.414       .  A
C686        S690   1.803       .  S
C687        C692   1.410       .  A
C687        C696   1.401       .  A
S688        H704   1.405       .  S
S690        H701   1.408       .  S
C692        C693   1.403       .  A
C692        S697   1.807       .  S
C693        C694   1.404       .  A
C693        H698   1.083       .  S
C694        C695   1.416       .  A
C695        C696   1.399       .  A
C695        S699   1.804   1_455  S
C696        H700   1.083       .  S
S697        H702   1.406       .  S
S699        H703   1.408       .  S
C705        C706   1.400       .  A
C705        C710   1.400       .  A
C705        H715   1.084       .  S
C706        C711   1.473       .  S
C706        C707   1.410       .  A
C707        C708   1.395       .  A
C707        S712   1.805       .  S
C708        C709   1.405       .  A
C708        H713   1.084       .  S
C709        C710   1.417       .  A
C710        S714   1.801       .  S
C711        C716   1.406       .  A
C711        C720   1.398       .  A
S712        H728   1.404       .  S
S714        H725   1.408       .  S
C716        C717   1.404       .  A
C716        S721   1.804       .  S
C717        C718   1.407       .  A
C717        H722   1.082       .  S
C718        C719   1.416       .  A
C719        C720   1.397       .  A
C719        S723   1.811       .  S
C720        H724   1.082       .  S
S721        H726   1.407       .  S
S723        H727   1.407       .  S
C729        C730   1.402   1_556  A
C729        C734   1.404       .  A
C729        H739   1.083       .  S
C730        C735   1.481       .  S
C730        C731   1.413       .  A
C731        C732   1.399       .  A
C731        S736   1.805       .  S
C732        C733   1.404       .  A
C732        H737   1.084       .  S
C733        C734   1.414   1_554  A
C734        S738   1.809       .  S
C735        C740   1.408       .  A
C735        C744   1.401   1_554  A
S736        H752   1.405       .  S
S738        H749   1.406       .  S
C740        C741   1.404       .  A
C740        S745   1.807       .  S
C741        C742   1.407       .  A
C741        H746   1.081       .  S
C742        C743   1.416   1_554  A
C743        C744   1.401       .  A
C743        S747   1.802       .  S
C744        H748   1.083       .  S
S745        H750   1.407       .  S
S747        H751   1.407       .  S
C753        C754   1.399       .  A
C753        C758   1.398       .  A
C753        H763   1.082       .  S
C754        C759   1.471       .  S
C754        C755   1.407       .  A
C755        C756   1.395       .  A
C755        S760   1.804       .  S
C756        C757   1.406       .  A
C756        H761   1.082       .  S
C757        C758   1.417       .  A
C758        S762   1.802       .  S
C759        C764   1.407       .  A
C759        C768   1.400       .  A
S760        H776   1.406       .  S
S762        H773   1.408       .  S
C764        C765   1.396       .  A
C764        S769   1.809       .  S
C765        C766   1.405       .  A
C765        H770   1.083       .  S
C766        C767   1.416       .  A
C767        C768   1.400       .  A
C767        S771   1.800       .  S
C768        H772   1.084       .  S
S769        H774   1.407       .  S
S771        H775   1.407       .  S
C777        C778   1.403       .  A
C777        C782   1.400       .  A
C777        H787   1.082       .  S
C778        C783   1.476       .  S
C778        C779   1.412       .  A
C779        C780   1.395       .  A
C779        S784   1.806       .  S
C780        C781   1.404       .  A
C780        H785   1.082       .  S
C781        C782   1.414       .  A
C782        S786   1.802       .  S
C783        C788   1.406       .  A
C783        C792   1.401       .  A
S784        H800   1.405       .  S
S786        H797   1.407       .  S
C788        C789   1.399       .  A
C788        S793   1.807       .  S
C789        C790   1.406       .  A
C789        H794   1.083       .  S
C790        C791   1.416       .  A
C791        C792   1.402       .  A
C791        S795   1.808       .  S
C792        H796   1.083       .  S
S793        H798   1.407       .  S
S795        H799   1.407       .  S
C801        C802   1.403       .  A
C801        C806   1.398       .  A
C801        H811   1.084       .  S
C802        C807   1.483       .  S
C802        C803   1.413       .  A
C803        C804   1.402       .  A
C803        S808   1.805       .  S
C804        C805   1.406       .  A
C804        H809   1.084       .  S
C805        C806   1.415       .  A
C806        S810   1.803       .  S
C807        C812   1.409       .  A
C807        C816   1.404       .  A
S808        H824   1.405       .  S
S810        H821   1.407       .  S
C812        C813   1.399       .  A
C812        S817   1.808       .  S
C813        C814   1.404       .  A
C813        H818   1.083       .  S
C814        C815   1.417       .  A
C815        C816   1.404       .  A
C815        S819   1.802       .  S
C816        H820   1.084       .  S
S817        H822   1.407       .  S
S819        H823   1.407       .  S
C825        C826   1.401       .  A
C825        C830   1.399       .  A
C825        H835   1.084       .  S
C826        C831   1.476       .  S
C826        C827   1.410       .  A
C827        C828   1.399       .  A
C827        S832   1.804       .  S
C828        C829   1.407       .  A
C828        H833   1.084       .  S
C829        C830   1.416       .  A
C830        S834   1.802       .  S
C831        C836   1.408       .  A
C831        C840   1.400       .  A
S832        H848   1.406       .  S
S834        H845   1.408       .  S
C836        C837   1.404       .  A
C836        S841   1.806       .  S
C837        C838   1.406       .  A
C837        H842   1.083       .  S
C838        C839   1.414       .  A
C839        C840   1.397       .  A
C839        S843   1.803       .  S
C840        H844   1.084       .  S
S841        H846   1.407       .  S
S843        H847   1.408       .  S
C849        C850   1.402       .  A
C849        C854   1.398       .  A
C849        H859   1.085       .  S
C850        C855   1.477       .  S
C850        C851   1.410       .  A
C851        C852   1.399       .  A
C851        S856   1.802       .  S
C852        C853   1.404       .  A
C852        H857   1.085       .  S
C853        C854   1.415       .  A
C854        S858   1.804       .  S
C855        C860   1.405       .  A
C855        C864   1.400       .  A
S856        H872   1.407       .  S
S858        H869   1.408       .  S
C860        C861   1.402       .  A
C860        S865   1.806       .  S
C861        C862   1.409       .  A
C861        H866   1.083       .  S
C862        C863   1.418       .  A
C863        C864   1.398       .  A
C863        S867   1.801       .  S
C864        H868   1.085       .  S
S865        H870   1.407       .  S
S867        H871   1.408       .  S
C873        C874   1.400       .  A
C873        C878   1.398       .  A
C873        H883   1.084       .  S
C874        C879   1.476       .  S
C874        C875   1.410       .  A
C875        C876   1.400       .  A
C875        S880   1.805       .  S
C876        C877   1.407       .  A
C876        H881   1.084       .  S
C877        C878   1.416       .  A
C878        S882   1.802       .  S
C879        C884   1.408   1_565  A
C879        C888   1.401   1_565  A
S880        H896   1.405       .  S
S882        H893   1.408       .  S
C884        C885   1.402       .  A
C884        S889   1.805   1_545  S
C885        C886   1.404       .  A
C885        H890   1.083       .  S
C886        C887   1.413       .  A
C887        C888   1.397       .  A
C887        S891   1.803       .  S
C888        H892   1.084   1_545  S
S889        H894   1.407   1_565  S
S891        H895   1.407       .  S
C897        C898   1.401       .  A
C897        C902   1.400       .  A
C897        H907   1.083       .  S
C898        C903   1.481       .  S
C898        C899   1.411       .  A
C899        C900   1.400       .  A
C899        S904   1.803       .  S
C900        C901   1.406       .  A
C900        H905   1.083       .  S
C901        C902   1.417       .  A
C902        S906   1.803       .  S
C903        C908   1.409       .  A
C903        C912   1.402       .  A
S904        H920   1.406       .  S
S906        H917   1.408       .  S
C908        C909   1.402       .  A
C908        S913   1.808       .  S
C909        C910   1.406       .  A
C909        H914   1.084       .  S
C910        C911   1.415       .  A
C911        C912   1.402       .  A
C911        S915   1.801       .  S
C912        H916   1.084       .  S
S913        H918   1.407       .  S
S915        H919   1.407       .  S
C921        C922   1.400       .  A
C921        C926   1.399       .  A
C921        H931   1.085       .  S
C922        C927   1.469       .  S
C922        C923   1.409       .  A
C923        C924   1.392       .  A
C923        S928   1.806       .  S
C924        C925   1.404       .  A
C924        H929   1.084       .  S
C925        C926   1.417       .  A
C926        S930   1.802       .  S
C927        C932   1.406       .  A
C927        C936   1.397       .  A
S928        H944   1.404       .  S
S930        H941   1.407       .  S
C932        C933   1.399       .  A
C932        S937   1.807       .  S
C933        C934   1.406       .  A
C933        H938   1.083       .  S
C934        C935   1.420       .  A
C935        C936   1.397       .  A
C935        S939   1.801       .  S
C936        H940   1.084       .  S
S937        H942   1.406       .  S
S939        H943   1.407       .  S
C945        C946   1.400       .  A
C945        C950   1.399       .  A
C945        H955   1.086       .  S
C946        C951   1.475       .  S
C946        C947   1.410       .  A
C947        C948   1.398       .  A
C947        S952   1.803       .  S
C948        C949   1.405       .  A
C948        H953   1.085       .  S
C949        C950   1.415       .  A
C950        S954   1.802       .  S
C951        C956   1.407       .  A
C951        C960   1.401       .  A
S952        H968   1.406       .  S
S954        H965   1.408       .  S
C956        C957   1.395       .  A
C956        S961   1.810       .  S
C957        C958   1.406       .  A
C957        H962   1.081       .  S
C958        C959   1.419       .  A
C959        C960   1.404       .  A
C959        S963   1.800       .  S
C960        H964   1.083       .  S
S961        H966   1.406       .  S
S963        H967   1.407       .  S
C969        C970   1.400       .  A
C969        C974   1.400       .  A
C969        H979   1.084       .  S
C970        C975   1.473       .  S
C970        C971   1.408       .  A
C971        C972   1.394       .  A
C971        S976   1.803       .  S
C972        C973   1.405       .  A
C972        H977   1.083       .  S
C973        C974   1.417       .  A
C974        S978   1.801       .  S
C975        C980   1.406       .  A
C975        C984   1.402       .  A
S976        H992   1.404       .  S
S978        H989   1.408       .  S
C980        C981   1.395       .  A
C980        S985   1.808       .  S
C981        C982   1.405       .  A
C981        H986   1.082       .  S
C982        C983   1.416       .  A
C983        C984   1.402       .  A
C983        S987   1.801       .  S
C984        H988   1.084       .  S
S985        H990   1.407       .  S
S987        H991   1.407       .  S
C993        C994   1.403       .  A
C993        C998   1.401       .  A
C993       H1003   1.085       .  S
C994        C999   1.477       .  S
C994        C995   1.410       .  A
C995        C996   1.397       .  A
C995       S1000   1.804       .  S
C996        C997   1.404       .  A
C996       H1001   1.084       .  S
C997        C998   1.415       .  A
C998       S1002   1.802       .  S
C999       C1004   1.408       .  A
C999       C1008   1.399       .  A
S1000      H1016   1.406       .  S
S1002      H1013   1.408       .  S
C1004      C1005   1.403       .  A
C1004      S1009   1.806       .  S
C1005      C1006   1.407       .  A
C1005      H1010   1.082       .  S
C1006      C1007   1.417       .  A
C1007      C1008   1.397       .  A
C1007      S1011   1.803       .  S
C1008      H1012   1.084       .  S
S1009      H1014   1.407       .  S
S1011      H1015   1.408       .  S
C1017      C1018   1.401       .  A
C1017      C1022   1.401       .  A
C1017      H1027   1.084       .  S
C1018      C1023   1.478       .  S
C1018      C1019   1.410       .  A
C1019      C1020   1.396       .  A
C1019      S1024   1.806       .  S
C1020      C1021   1.406       .  A
C1020      H1025   1.084       .  S
C1021      C1022   1.419       .  A
C1022      S1026   1.799       .  S
C1023      C1028   1.407       .  A
C1023      C1032   1.400       .  A
S1024      H1040   1.404       .  S
S1026      H1037   1.408       .  S
C1028      C1029   1.403       .  A
C1028      S1033   1.806       .  S
C1029      C1030   1.407       .  A
C1029      H1034   1.083       .  S
C1030      C1031   1.416       .  A
C1031      C1032   1.398       .  A
C1031      S1035   1.801       .  S
C1032      H1036   1.084       .  S
S1033      H1038   1.407       .  S
S1035      H1039   1.407       .  S
C1041      C1042   1.402       .  A
C1041      C1046   1.400       .  A
C1041      H1051   1.084       .  S
C1042      C1047   1.479       .  S
C1042      C1043   1.413       .  A
C1043      C1044   1.397       .  A
C1043      S1048   1.805       .  S
C1044      C1045   1.403       .  A
C1044      H1049   1.084       .  S
C1045      C1046   1.415       .  A
C1046      S1050   1.802       .  S
C1047      C1052   1.411       .  A
C1047      C1056   1.403       .  A
S1048      H1064   1.406       .  S
S1050      H1061   1.406       .  S
C1052      C1053   1.402       .  A
C1052      S1057   1.806       .  S
C1053      C1054   1.401       .  A
C1053      H1058   1.083       .  S
C1054      C1055   1.411       .  A
C1055      C1056   1.397       .  A
C1055      S1059   1.805       .  S
C1056      H1060   1.084       .  S
S1057      H1062   1.407       .  S
S1059      H1063   1.407       .  S
C1065      C1066   1.400       .  A
C1065      C1070   1.396       .  A
C1065      H1075   1.084       .  S
C1066      C1071   1.481       .  S
C1066      C1067   1.412       .  A
C1067      C1068   1.402       .  A
C1067      S1072   1.803       .  S
C1068      C1069   1.406       .  A
C1068      H1073   1.083       .  S
C1069      C1070   1.417       .  A
C1070      S1074   1.803       .  S
C1071      C1076   1.410       .  A
C1071      C1080   1.402       .  A
S1072      H1088   1.406       .  S
S1074      H1085   1.406       .  S
C1076      C1077   1.401       .  A
C1076      S1081   1.807       .  S
C1077      C1078   1.403       .  A
C1077      H1082   1.082       .  S
C1078      C1079   1.415       .  A
C1079      C1080   1.401       .  A
C1079      S1083   1.804       .  S
C1080      H1084   1.083       .  S
S1081      H1086   1.407       .  S
S1083      H1087   1.407       .  S
C1089      C1090   1.402       .  A
C1089      C1094   1.406       .  A
C1089      H1099   1.083       .  S
C1090      C1095   1.483       .  S
C1090      C1091   1.409       .  A
C1091      C1092   1.398       .  A
C1091      S1096   1.805       .  S
C1092      C1093   1.408       .  A
C1092      H1097   1.083       .  S
C1093      C1094   1.419       .  A
C1094      S1098   1.808       .  S
C1095      C1100   1.408       .  A
C1095      C1104   1.399       .  A
S1096      H1112   1.406       .  S
S1098      H1109   1.407       .  S
C1100      C1101   1.406       .  A
C1100      S1105   1.806       .  S
C1101      C1102   1.408       .  A
C1101      H1106   1.082       .  S
C1102      C1103   1.420       .  A
C1103      C1104   1.397       .  A
C1103      S1107   1.803       .  S
C1104      H1108   1.084       .  S
S1105      H1110   1.407       .  S
S1107      H1111   1.406       .  S
C1113      C1114   1.401       .  A
C1113      C1118   1.397       .  A
C1113      H1123   1.084       .  S
C1114      C1119   1.477       .  S
C1114      C1115   1.412       .  A
C1115      C1116   1.400       .  A
C1115      S1120   1.805       .  S
C1116      C1117   1.405       .  A
C1116      H1121   1.083       .  S
C1117      C1118   1.415       .  A
C1118      S1122   1.803       .  S
C1119      C1124   1.409       .  A
C1119      C1128   1.400       .  A
S1120      H1136   1.406       .  S
S1122      H1133   1.408       .  S
C1124      C1125   1.402       .  A
C1124      S1129   1.807       .  S
C1125      C1126   1.405       .  A
C1125      H1130   1.082       .  S
C1126      C1127   1.416       .  A
C1127      C1128   1.398       .  A
C1127      S1131   1.803       .  S
C1128      H1132   1.083       .  S
S1129      H1134   1.407       .  S
S1131      H1135   1.408       .  S
C1137      C1138   1.402       .  A
C1137      C1142   1.399       .  A
C1137      H1147   1.083       .  S
C1138      C1143   1.479       .  S
C1138      C1139   1.410       .  A
C1139      C1140   1.400       .  A
C1139      S1144   1.805       .  S
C1140      C1141   1.407       .  A
C1140      H1145   1.083       .  S
C1141      C1142   1.416       .  A
C1142      S1146   1.803       .  S
C1143      C1148   1.409       .  A
C1143      C1152   1.399       .  A
S1144      H1160   1.406       .  S
S1146      H1157   1.408       .  S
C1148      C1149   1.406       .  A
C1148      S1153   1.804       .  S
C1149      C1150   1.406       .  A
C1149      H1154   1.082       .  S
C1150      C1151   1.415       .  A
C1151      C1152   1.395       .  A
C1151      S1155   1.804       .  S
C1152      H1156   1.083       .  S
S1153      H1158   1.407       .  S
S1155      H1159   1.408       .  S
C1161      C1162   1.403       .  A
C1161      C1166   1.396       .  A
C1161      H1171   1.083       .  S
C1162      C1167   1.484       .  S
C1162      C1163   1.415       .  A
C1163      C1164   1.402       .  A
C1163      S1168   1.804       .  S
C1164      C1165   1.403       .  A
C1164      H1169   1.084       .  S
C1165      C1166   1.411       .  A
C1166      S1170   1.804       .  S
C1167      C1172   1.413       .  A
C1167      C1176   1.404       .  A
S1168      H1184   1.406       .  S
S1170      H1181   1.408       .  S
C1172      C1173   1.402       .  A
C1172      S1177   1.809       .  S
C1173      C1174   1.403       .  A
C1173      H1178   1.083       .  S
C1174      C1175   1.413       .  A
C1175      C1176   1.400       .  A
C1175      S1179   1.803       .  S
C1176      H1180   1.084       .  S
S1177      H1182   1.406       .  S
S1179      H1183   1.407       .  S
C1185      C1186   1.398       .  A
C1185      C1190   1.395       .  A
C1185      H1195   1.084       .  S
C1186      C1191   1.472       .  S
C1186      C1187   1.411       .  A
C1187      C1188   1.400       .  A
C1187      S1192   1.805       .  S
C1188      C1189   1.406       .  A
C1188      H1193   1.083       .  S
C1189      C1190   1.415       .  A
C1190      S1194   1.802       .  S
C1191      C1196   1.406       .  A
C1191      C1200   1.402       .  A
S1192      H1208   1.405       .  S
S1194      H1205   1.408       .  S
C1196      C1197   1.395       .  A
C1196      S1201   1.807       .  S
C1197      C1198   1.402       .  A
C1197      H1202   1.083       .  S
C1198      C1199   1.415       .  A
C1199      C1200   1.400       .  A
C1199      S1203   1.803       .  S
C1200      H1204   1.085       .  S
S1201      H1206   1.407       .  S
S1203      H1207   1.408       .  S
C1209      C1210   1.399       .  A
C1209      C1214   1.397       .  A
C1209      H1219   1.086       .  S
C1210      C1215   1.474       .  S
C1210      C1211   1.409       .  A
C1211      C1212   1.398       .  A
C1211      S1216   1.803       .  S
C1212      C1213   1.407       .  A
C1212      H1217   1.085       .  S
C1213      C1214   1.419       .  A
C1214      S1218   1.801       .  S
C1215      C1220   1.408       .  A
C1215      C1224   1.399       .  A
S1216      H1232   1.406       .  S
S1218      H1229   1.408       .  S
C1220      C1221   1.401       .  A
C1220      S1225   1.806       .  S
C1221      C1222   1.405       .  A
C1221      H1226   1.082       .  S
C1222      C1223   1.415       .  A
C1223      C1224   1.396       .  A
C1223      S1227   1.803       .  S
C1224      H1228   1.084       .  S
S1225      H1230   1.407       .  S
S1227      H1231   1.408       .  S
C1233      C1234   1.401       .  A
C1233      C1238   1.395       .  A
C1233      H1243   1.084       .  S
C1234      C1239   1.474       .  S
C1234      C1235   1.411       .  A
C1235      C1236   1.398       .  A
C1235      S1240   1.804       .  S
C1236      C1237   1.405       .  A
C1236      H1241   1.084       .  S
C1237      C1238   1.413       .  A
C1238      S1242   1.803       .  S
C1239      C1244   1.407       .  A
C1239      C1248   1.402       .  A
S1240      H1256   1.406       .  S
S1242      H1253   1.408       .  S
C1244      C1245   1.399       .  A
C1244      S1249   1.808       .  S
C1245      C1246   1.405       .  A
C1245      H1250   1.082       .  S
C1246      C1247   1.413       .  A
C1247      C1248   1.399       .  A
C1247      S1251   1.802       .  S
C1248      H1252   1.083       .  S
S1249      H1254   1.407       .  S
S1251      H1255   1.407       .  S
C1257      C1258   1.402       .  A
C1257      C1262   1.404       .  A
C1257      H1267   1.085       .  S
C1258      C1263   1.479       .  S
C1258      C1259   1.411       .  A
C1259      C1260   1.395       .  A
C1259      S1264   1.806       .  S
C1260      C1261   1.405       .  A
C1260      H1265   1.084       .  S
C1261      C1262   1.418       .  A
C1262      S1266   1.800       .  S
C1263      C1268   1.407       .  A
C1263      C1272   1.400       .  A
S1264      H1280   1.404       .  S
S1266      H1277   1.407       .  S
C1268      C1269   1.404       .  A
C1268      S1273   1.806       .  S
C1269      C1270   1.407       .  A
C1269      H1274   1.082       .  S
C1270      C1271   1.418       .  A
C1271      C1272   1.399       .  A
C1271      S1275   1.802       .  S
C1272      H1276   1.083       .  S
S1273      H1278   1.407       .  S
S1275      H1279   1.408       .  S
C1281      C1282   1.400       .  A
C1281      C1286   1.395       .  A
C1281      H1291   1.084       .  S
C1282      C1287   1.469       .  S
C1282      C1283   1.410       .  A
C1283      C1284   1.395       .  A
C1283      S1288   1.805       .  S
C1284      C1285   1.405       .  A
C1284      H1289   1.084       .  S
C1285      C1286   1.414       .  A
C1286      S1290   1.802       .  S
C1287      C1292   1.408       .  A
C1287      C1296   1.399       .  A
S1288      H1304   1.405       .  S
S1290      H1301   1.408       .  S
C1292      C1293   1.401       .  A
C1292      S1297   1.806       .  S
C1293      C1294   1.403       .  A
C1293      H1298   1.083       .  S
C1294      C1295   1.412       .  A
C1295      C1296   1.393       .  A
C1295      S1299   1.804       .  S
C1296      H1300   1.084       .  S
S1297      H1302   1.407       .  S
S1299      H1303   1.407       .  S
C1305      C1306   1.401       .  A
C1305      C1310   1.399       .  A
C1305      H1315   1.085       .  S
C1306      C1311   1.473       .  S
C1306      C1307   1.411       .  A
C1307      C1308   1.395       .  A
C1307      S1312   1.805       .  S
C1308      C1309   1.404       .  A
C1308      H1313   1.085       .  S
C1309      C1310   1.415       .  A
C1310      S1314   1.802       .  S
C1311      C1316   1.407       .  A
C1311      C1320   1.400       .  A
S1312      H1328   1.405       .  S
S1314      H1325   1.408       .  S
C1316      C1317   1.394       .  A
C1316      S1321   1.810       .  S
C1317      C1318   1.405       .  A
C1317      H1322   1.082       .  S
C1318      C1319   1.419       .  A
C1319      C1320   1.403       .  A
C1319      S1323   1.799       .  S
C1320      H1324   1.083       .  S
S1321      H1326   1.406       .  S
S1323      H1327   1.407       .  S
C1329      C1330   1.400       .  A
C1329      C1334   1.398       .  A
C1329      H1339   1.084       .  S
C1330      C1335   1.476       .  S
C1330      C1331   1.411       .  A
C1331      C1332   1.400       .  A
C1331      S1336   1.805       .  S
C1332      C1333   1.407       .  A
C1332      H1337   1.084       .  S
C1333      C1334   1.416       .  A
C1334      S1338   1.802       .  S
C1335      C1340   1.409       .  A
C1335      C1344   1.399       .  A
S1336      H1352   1.405       .  S
S1338      H1349   1.408       .  S
C1340      C1341   1.405       .  A
C1340      S1345   1.806       .  S
C1341      C1342   1.405       .  A
C1341      H1346   1.082       .  S
C1342      C1343   1.414       .  A
C1343      C1344   1.396       .  A
C1343      S1347   1.804       .  S
C1344      H1348   1.084       .  S
S1345      H1350   1.407       .  S
S1347      H1351   1.407       .  S
C1353      C1354   1.403       .  A
C1353      C1358   1.401       .  A
C1353      H1363   1.084       .  S
C1354      C1359   1.487   1_565  S
C1354      C1355   1.412       .  A
C1355      C1356   1.401       .  A
C1355      S1360   1.804       .  S
C1356      C1357   1.408       .  A
C1356      H1361   1.083       .  S
C1357      C1358   1.418       .  A
C1358      S1362   1.801       .  S
C1359      C1364   1.412       .  A
C1359      C1368   1.402       .  A
S1360      H1376   1.406       .  S
S1362      H1373   1.407       .  S
C1364      C1365   1.406       .  A
C1364      S1369   1.807   1_545  S
C1365      C1366   1.405       .  A
C1365      H1370   1.083       .  S
C1366      C1367   1.415       .  A
C1367      C1368   1.399       .  A
C1367      S1371   1.803       .  S
C1368      H1372   1.084       .  S
S1369      H1374   1.406   1_565  S
S1371      H1375   1.408       .  S
C1377      C1378   1.403       .  A
C1377      C1382   1.398       .  A
C1377      H1387   1.084       .  S
C1378      C1383   1.483       .  S
C1378      C1379   1.412       .  A
C1379      C1380   1.399       .  A
C1379      S1384   1.803       .  S
C1380      C1381   1.404       .  A
C1380      H1385   1.084       .  S
C1381      C1382   1.416       .  A
C1382      S1386   1.803       .  S
C1383      C1388   1.410       .  A
C1383      C1392   1.401       .  A
S1384      H1400   1.406       .  S
S1386      H1397   1.408       .  S
C1388      C1389   1.407       .  A
C1388      S1393   1.806       .  S
C1389      C1390   1.406       .  A
C1389      H1394   1.083       .  S
C1390      C1391   1.414       .  A
C1391      C1392   1.396       .  A
C1391      S1395   1.804       .  S
C1392      H1396   1.084       .  S
S1393      H1398   1.407       .  S
S1395      H1399   1.408       .  S
C1401      C1402   1.401       .  A
C1401      C1406   1.400       .  A
C1401      H1411   1.084       .  S
C1402      C1407   1.477       .  S
C1402      C1403   1.413       .  A
C1403      C1404   1.398       .  A
C1403      S1408   1.806       .  S
C1404      C1405   1.404       .  A
C1404      H1409   1.084       .  S
C1405      C1406   1.416       .  A
C1406      S1410   1.802       .  S
C1407      C1412   1.407       .  A
C1407      C1416   1.400       .  A
S1408      H1424   1.405       .  S
S1410      H1421   1.408       .  S
C1412      C1413   1.400       .  A
C1412      S1417   1.807       .  S
C1413      C1414   1.407       .  A
C1413      H1418   1.082       .  S
C1414      C1415   1.418       .  A
C1415      C1416   1.399       .  A
C1415      S1419   1.800       .  S
C1416      H1420   1.084       .  S
S1417      H1422   1.407       .  S
S1419      H1423   1.408       .  S
C1425      C1426   1.404       .  A
C1425      C1430   1.399       .  A
C1425      H1435   1.084       .  S
C1426      C1431   1.484       .  S
C1426      C1427   1.414       .  A
C1427      C1428   1.398       .  A
C1427      S1432   1.804       .  S
C1428      C1429   1.402       .  A
C1428      H1433   1.084       .  S
C1429      C1430   1.413       .  A
C1430      S1434   1.803       .  S
C1431      C1436   1.411       .  A
C1431      C1440   1.403       .  A
S1432      H1448   1.407       .  S
S1434      H1445   1.407   1_556  S
C1436      C1437   1.404       .  A
C1436      S1441   1.807       .  S
C1437      C1438   1.404       .  A
C1437      H1442   1.083       .  S
C1438      C1439   1.413       .  A
C1439      C1440   1.398       .  A
C1439      S1443   1.803       .  S
C1440      H1444   1.084       .  S
S1441      H1446   1.407       .  S
S1443      H1447   1.408       .  S
C1449      C1450   1.401       .  A
C1449      C1454   1.398       .  A
C1449      H1459   1.085       .  S
C1450      C1455   1.472       .  S
C1450      C1451   1.411       .  A
C1451      C1452   1.397       .  A
C1451      S1456   1.806       .  S
C1452      C1453   1.405       .  A
C1452      H1457   1.084       .  S
C1453      C1454   1.415       .  A
C1454      S1458   1.802       .  S
C1455      C1460   1.404       .  A
C1455      C1464   1.398       .  A
S1456      H1472   1.403       .  S
S1458      H1469   1.408       .  S
C1460      C1461   1.399       .  A
C1460      S1465   1.806       .  S
C1461      C1462   1.407       .  A
C1461      H1466   1.082       .  S
C1462      C1463   1.421       .  A
C1463      C1464   1.403       .  A
C1463      S1467   1.810       .  S
C1464      H1468   1.083       .  S
S1465      H1470   1.407       .  S
S1467      H1471   1.407       .  S
C1473      C1474   1.401       .  A
C1473      C1478   1.396       .  A
C1473      H1483   1.085       .  S
C1474      C1479   1.474       .  S
C1474      C1475   1.409       .  A
C1475      C1476   1.395       .  A
C1475      S1480   1.803       .  S
C1476      C1477   1.405       .  A
C1476      H1481   1.084       .  S
C1477      C1478   1.416       .  A
C1478      S1482   1.802       .  S
C1479      C1484   1.407       .  A
C1479      C1488   1.400       .  A
S1480      H1496   1.406       .  S
S1482      H1493   1.408       .  S
C1484      C1485   1.398       .  A
C1484      S1489   1.808       .  S
C1485      C1486   1.405       .  A
C1485      H1490   1.083       .  S
C1486      C1487   1.419       .  A
C1487      C1488   1.401       .  A
C1487      S1491   1.809       .  S
C1488      H1492   1.084       .  S
S1489      H1494   1.406       .  S
S1491      H1495   1.407       .  S
C1497      C1498   1.403       .  A
C1497      C1502   1.403       .  A
C1497      H1507   1.081       .  S
C1498      C1503   1.484       .  S
C1498      C1499   1.410       .  A
C1499      C1500   1.399       .  A
C1499      S1504   1.805       .  S
C1500      C1501   1.408       .  A
C1500      H1505   1.082       .  S
C1501      C1502   1.417       .  A
C1502      S1506   1.808       .  S
C1503      C1508   1.411       .  A
C1503      C1512   1.403       .  A
S1504      H1520   1.406       .  S
S1506      H1517   1.407       .  S
C1508      C1509   1.405       .  A
C1508      S1513   1.806       .  S
C1509      C1510   1.404       .  A
C1509      H1514   1.083       .  S
C1510      C1511   1.412       .  A
C1511      C1512   1.396       .  A
C1511      S1515   1.804       .  S
C1512      H1516   1.084       .  S
S1513      H1518   1.407       .  S
S1515      H1519   1.408       .  S
C1521      C1522   1.401       .  A
C1521      C1526   1.399       .  A
C1521      H1531   1.084       .  S
C1522      C1527   1.478       .  S
C1522      C1523   1.412       .  A
C1523      C1524   1.398       .  A
C1523      S1528   1.806       .  S
C1524      C1525   1.405       .  A
C1524      H1529   1.084       .  S
C1525      C1526   1.415       .  A
C1526      S1530   1.802       .  S
C1527      C1532   1.408       .  A
C1527      C1536   1.400       .  A
S1528      H1544   1.405       .  S
S1530      H1541   1.408       .  S
C1532      C1533   1.402       .  A
C1532      S1537   1.807       .  S
C1533      C1534   1.405       .  A
C1533      H1538   1.081       .  S
C1534      C1535   1.417       .  A
C1535      C1536   1.398       .  A
C1535      S1539   1.801       .  S
C1536      H1540   1.083       .  S
S1537      H1542   1.407       .  S
S1539      H1543   1.408       .  S
C1545      C1546   1.402       .  A
C1545      C1550   1.404       .  A
C1545      H1555   1.083       .  S
C1546      C1551   1.487       .  S
C1546      C1547   1.413       .  A
C1547      C1548   1.399       .  A
C1547      S1552   1.805       .  S
C1548      C1549   1.406       .  A
C1548      H1553   1.084       .  S
C1549      C1550   1.418       .  A
C1550      S1554   1.809       .  S
C1551      C1556   1.413       .  A
C1551      C1560   1.401       .  A
S1552      H1568   1.406       .  S
S1554      H1565   1.407       .  S
C1556      C1557   1.408       .  A
C1556      S1561   1.806       .  S
C1557      C1558   1.406       .  A
C1557      H1562   1.083       .  S
C1558      C1559   1.414       .  A
C1559      C1560   1.395       .  A
C1559      S1563   1.804       .  S
C1560      H1564   1.085       .  S
S1561      H1566   1.407       .  S
S1563      H1567   1.408       .  S
C1569      C1570   1.400       .  A
C1569      C1574   1.398       .  A
C1569      H1579   1.083       .  S
C1570      C1575   1.473       .  S
C1570      C1571   1.409       .  A
C1571      C1572   1.397       .  A
C1571      S1576   1.806       .  S
C1572      C1573   1.406       .  A
C1572      H1577   1.083       .  S
C1573      C1574   1.417       .  A
C1574      S1578   1.801       .  S
C1575      C1580   1.408       .  A
C1575      C1584   1.399       .  A
S1576      H1592   1.404       .  S
S1578      H1589   1.407       .  S
C1580      C1581   1.400       .  A
C1580      S1585   1.808       .  S
C1581      C1582   1.404       .  A
C1581      H1586   1.082       .  S
C1582      C1583   1.416       .  A
C1583      C1584   1.398       .  A
C1583      S1587   1.803       .  S
C1584      H1588   1.083       .  S
S1585      H1590   1.407       .  S
S1587      H1591   1.408       .  S
C1593      C1594   1.400       .  A
C1593      C1598   1.399       .  A
C1593      H1603   1.084       .  S
C1594      C1599   1.477       .  S
C1594      C1595   1.410       .  A
C1595      C1596   1.399       .  A
C1595      S1600   1.805       .  S
C1596      C1597   1.407       .  A
C1596      H1601   1.083       .  S
C1597      C1598   1.420       .  A
C1598      S1602   1.801       .  S
C1599      C1604   1.408       .  A
C1599      C1608   1.399       .  A
S1600      H1616   1.405       .  S
S1602      H1613   1.408       .  S
C1604      C1605   1.403       .  A
C1604      S1609   1.806       .  S
C1605      C1606   1.406       .  A
C1605      H1610   1.084       .  S
C1606      C1607   1.418       .  A
C1607      C1608   1.397       .  A
C1607      S1611   1.802       .  S
C1608      H1612   1.086       .  S
S1609      H1614   1.407       .  S
S1611      H1615   1.407       .  S
C1617      C1618   1.399       .  A
C1617      C1622   1.397       .  A
C1617      H1627   1.084       .  S
C1618      C1623   1.474       .  S
C1618      C1619   1.409       .  A
C1619      C1620   1.399       .  A
C1619      S1624   1.803       .  S
C1620      C1621   1.407       .  A
C1620      H1625   1.083       .  S
C1621      C1622   1.418       .  A
C1622      S1626   1.802       .  S
C1623      C1628   1.407       .  A
C1623      C1632   1.400       .  A
S1624      H1640   1.406       .  S
S1626      H1637   1.409       .  S
C1628      C1629   1.400       .  A
C1628      S1633   1.807       .  S
C1629      C1630   1.406       .  A
C1629      H1634   1.083       .  S
C1630      C1631   1.415       .  A
C1631      C1632   1.399       .  A
C1631      S1635   1.802       .  S
C1632      H1636   1.085       .  S
S1633      H1638   1.407       .  S
S1635      H1639   1.405       .  S
C1641      C1642   1.400       .  A
C1641      C1646   1.399       .  A
C1641      H1651   1.082       .  S
C1642      C1647   1.478       .  S
C1642      C1643   1.412       .  A
C1643      C1644   1.401       .  A
C1643      S1648   1.804       .  S
C1644      C1645   1.405       .  A
C1644      H1649   1.083       .  S
C1645      C1646   1.415       .  A
C1646      S1650   1.810       .  S
C1647      C1652   1.410       .  A
C1647      C1656   1.402       .  A
S1648      H1664   1.406       .  S
S1650      H1661   1.407       .  S
C1652      C1653   1.401       .  A
C1652      S1657   1.808       .  S
C1653      C1654   1.403       .  A
C1653      H1658   1.083       .  S
C1654      C1655   1.414       .  A
C1655      C1656   1.399       .  A
C1655      S1659   1.804   1_455  S
C1656      H1660   1.084       .  S
S1657      H1662   1.407       .  S
S1659      H1663   1.407       .  S
C1665      C1666   1.402       .  A
C1665      C1670   1.401       .  A
C1665      H1675   1.083       .  S
C1666      C1671   1.481       .  S
C1666      C1667   1.412       .  A
C1667      C1668   1.398       .  A
C1667      S1672   1.804       .  S
C1668      C1669   1.404       .  A
C1668      H1673   1.083       .  S
C1669      C1670   1.418       .  A
C1670      S1674   1.803       .  S
C1671      C1676   1.409       .  A
C1671      C1680   1.400       .  A
S1672      H1688   1.406       .  S
S1674      H1685   1.408       .  S
C1676      C1677   1.405       .  A
C1676      S1681   1.806       .  S
C1677      C1678   1.408       .  A
C1677      H1682   1.082       .  S
C1678      C1679   1.416       .  A
C1679      C1680   1.396       .  A
C1679      S1683   1.802       .  S
C1680      H1684   1.084       .  S
S1681      H1686   1.407       .  S
S1683      H1687   1.408       .  S
C1689      C1690   1.400       .  A
C1689      C1694   1.399       .  A
C1689      H1699   1.083       .  S
C1690      C1695   1.475       .  S
C1690      C1691   1.409       .  A
C1691      C1692   1.396       .  A
C1691      S1696   1.805       .  S
C1692      C1693   1.406       .  A
C1692      H1697   1.083       .  S
C1693      C1694   1.418       .  A
C1694      S1698   1.800       .  S
C1695      C1700   1.407       .  A
C1695      C1704   1.400       .  A
S1696      H1712   1.405       .  S
S1698      H1709   1.408       .  S
C1700      C1701   1.402       .  A
C1700      S1705   1.807       .  S
C1701      C1702   1.406       .  A
C1701      H1706   1.083       .  S
C1702      C1703   1.416       .  A
C1703      C1704   1.397       .  A
C1703      S1707   1.802       .  S
C1704      H1708   1.084       .  S
S1705      H1710   1.407       .  S
S1707      H1711   1.407       .  S
C1713      C1714   1.400       .  A
C1713      C1718   1.398       .  A
C1713      H1723   1.083       .  S
C1714      C1719   1.474       .  S
C1714      C1715   1.409       .  A
C1715      C1716   1.397       .  A
C1715      S1720   1.804       .  S
C1716      C1717   1.406       .  A
C1716      H1721   1.083       .  S
C1717      C1718   1.415       .  A
C1718      S1722   1.802       .  S
C1719      C1724   1.407       .  A
C1719      C1728   1.400       .  A
S1720      H1736   1.406       .  S
S1722      H1733   1.407       .  S
C1724      C1725   1.400       .  A
C1724      S1729   1.806       .  S
C1725      C1726   1.407       .  A
C1725      H1730   1.083       .  S
C1726      C1727   1.416       .  A
C1727      C1728   1.397       .  A
C1727      S1731   1.802       .  S
C1728      H1732   1.084       .  S
S1729      H1734   1.407       .  S
S1731      H1735   1.407       .  S
C1737      C1738   1.402   1_556  A
C1737      C1742   1.397       .  A
C1737      H1747   1.084       .  S
C1738      C1743   1.478       .  S
C1738      C1739   1.412       .  A
C1739      C1740   1.397       .  A
C1739      S1744   1.804       .  S
C1740      C1741   1.404       .  A
C1740      H1745   1.084       .  S
C1741      C1742   1.414   1_554  A
C1742      S1746   1.803       .  S
C1743      C1748   1.408       .  A
C1743      C1752   1.401       .  A
S1744      H1760   1.406       .  S
S1746      H1757   1.408       .  S
C1748      C1749   1.400       .  A
C1748      S1753   1.808   1_554  S
C1749      C1750   1.407       .  A
C1749      H1754   1.082       .  S
C1750      C1751   1.417       .  A
C1751      C1752   1.398       .  A
C1751      S1755   1.801       .  S
C1752      H1756   1.084       .  S
S1753      H1758   1.407       .  S
S1755      H1759   1.408       .  S
C1761      C1762   1.400       .  A
C1761      C1766   1.394       .  A
C1761      H1771   1.084       .  S
C1762      C1767   1.475       .  S
C1762      C1763   1.412       .  A
C1763      C1764   1.401       .  A
C1763      S1768   1.804       .  S
C1764      C1765   1.405       .  A
C1764      H1769   1.084       .  S
C1765      C1766   1.414       .  A
C1766      S1770   1.805       .  S
C1767      C1772   1.407       .  A
C1767      C1776   1.402       .  A
S1768      H1784   1.405       .  S
S1770      H1781   1.407       .  S
C1772      C1773   1.399       .  A
C1772      S1777   1.807       .  S
C1773      C1774   1.407       .  A
C1773      H1778   1.082       .  S
C1774      C1775   1.415       .  A
C1775      C1776   1.399       .  A
C1775      S1779   1.802   1_556  S
C1776      H1780   1.083       .  S
S1777      H1782   1.407       .  S
S1779      H1783   1.407       .  S
C1785      C1786   1.401       .  A
C1785      C1790   1.400       .  A
C1785      H1795   1.084       .  S
C1786      C1791   1.475       .  S
C1786      C1787   1.409       .  A
C1787      C1788   1.396       .  A
C1787      S1792   1.804       .  S
C1788      C1789   1.406       .  A
C1788      H1793   1.083       .  S
C1789      C1790   1.416       .  A
C1790      S1794   1.801       .  S
C1791      C1796   1.406       .  A
C1791      C1800   1.402       .  A
S1792      H1808   1.405       .  S
S1794      H1805   1.408       .  S
C1796      C1797   1.399       .  A
C1796      S1801   1.807       .  S
C1797      C1798   1.406       .  A
C1797      H1802   1.083       .  S
C1798      C1799   1.415       .  A
C1799      C1800   1.400       .  A
C1799      S1803   1.801       .  S
C1800      H1804   1.085       .  S
S1801      H1806   1.407       .  S
S1803      H1807   1.407       .  S
C1809      C1810   1.402   1_545  A
C1809      C1814   1.400       .  A
C1809      H1819   1.083   1_545  S
C1810      C1815   1.479       .  S
C1810      C1811   1.413   1_565  A
C1811      C1812   1.399       .  A
C1811      S1816   1.804   1_445  S
C1812      C1813   1.402       .  A
C1812      H1817   1.084       .  S
C1813      C1814   1.413       .  A
C1814      S1818   1.804       .  S
C1815      C1820   1.408       .  A
C1815      C1824   1.402       .  A
S1816      H1832   1.404       .  S
S1818      H1829   1.407       .  S
C1820      C1821   1.403       .  A
C1820      S1825   1.805       .  S
C1821      C1822   1.403       .  A
C1821      H1826   1.083       .  S
C1822      C1823   1.413       .  A
C1823      C1824   1.405       .  A
C1823      S1827   1.808       .  S
C1824      H1828   1.082       .  S
S1825      H1830   1.407       .  S
S1827      H1831   1.407       .  S
C1833      C1834   1.404       .  A
C1833      C1838   1.397       .  A
C1833      H1843   1.084       .  S
C1834      C1839   1.487       .  S
C1834      C1835   1.414       .  A
C1835      C1836   1.402       .  A
C1835      S1840   1.803       .  S
C1836      C1837   1.404       .  A
C1836      H1841   1.084       .  S
C1837      C1838   1.414       .  A
C1838      S1842   1.805       .  S
C1839      C1844   1.412       .  A
C1839      C1848   1.403       .  A
S1840      H1856   1.406       .  S
S1842      H1853   1.408       .  S
C1844      C1845   1.404       .  A
C1844      S1849   1.807       .  S
C1845      C1846   1.405       .  A
C1845      H1850   1.082       .  S
C1846      C1847   1.415       .  A
C1847      C1848   1.399       .  A
C1847      S1851   1.803       .  S
C1848      H1852   1.083       .  S
S1849      H1854   1.407       .  S
S1851      H1855   1.408       .  S
C1857      C1858   1.402       .  A
C1857      C1862   1.399       .  A
C1857      H1867   1.085       .  S
C1858      C1863   1.482       .  S
C1858      C1859   1.413       .  A
C1859      C1860   1.400       .  A
C1859      S1864   1.805       .  S
C1860      C1861   1.406       .  A
C1860      H1865   1.084       .  S
C1861      C1862   1.418       .  A
C1862      S1866   1.802       .  S
C1863      C1868   1.410       .  A
C1863      C1872   1.402       .  A
S1864      H1880   1.405       .  S
S1866      H1877   1.408       .  S
C1868      C1869   1.402       .  A
C1868      S1873   1.806       .  S
C1869      C1870   1.405       .  A
C1869      H1874   1.083       .  S
C1870      C1871   1.417       .  A
C1871      C1872   1.400       .  A
C1871      S1875   1.801       .  S
C1872      H1876   1.084       .  S
S1873      H1878   1.407       .  S
S1875      H1879   1.405       .  S
C1881      C1882   1.399       .  A
C1881      C1886   1.397       .  A
C1881      H1891   1.085       .  S
C1882      C1887   1.475       .  S
C1882      C1883   1.410   1_554  A
C1883      C1884   1.397       .  A
C1883      S1888   1.804       .  S
C1884      C1885   1.406       .  A
C1884      H1889   1.084       .  S
C1885      C1886   1.420   1_556  A
C1886      S1890   1.799       .  S
C1887      C1892   1.408       .  A
C1887      C1896   1.400   1_554  A
S1888      H1904   1.406       .  S
S1890      H1901   1.406       .  S
C1892      C1893   1.400       .  A
C1892      S1897   1.807       .  S
C1893      C1894   1.405       .  A
C1893      H1898   1.083       .  S
C1894      C1895   1.415   1_554  A
C1895      C1896   1.396       .  A
C1895      S1899   1.802       .  S
C1896      H1900   1.084       .  S
S1897      H1902   1.407       .  S
S1899      H1903   1.407       .  S
C1905      C1906   1.402       .  A
C1905      C1910   1.396       .  A
C1905      H1915   1.084       .  S
C1906      C1911   1.481       .  S
C1906      C1907   1.413       .  A
C1907      C1908   1.401       .  A
C1907      S1912   1.803       .  S
C1908      C1909   1.403       .  A
C1908      H1913   1.084       .  S
C1909      C1910   1.414       .  A
C1910      S1914   1.804       .  S
C1911      C1916   1.410       .  A
C1911      C1920   1.401       .  A
S1912      H1928   1.406       .  S
S1914      H1925   1.407       .  S
C1916      C1917   1.405       .  A
C1916      S1921   1.806       .  S
C1917      C1918   1.406       .  A
C1917      H1922   1.082       .  S
C1918      C1919   1.415       .  A
C1919      C1920   1.397       .  A
C1919      S1923   1.802       .  S
C1920      H1924   1.084       .  S
S1921      H1926   1.407       .  S
S1923      H1927   1.408       .  S
C1929      C1930   1.402       .  A
C1929      C1934   1.402       .  A
C1929      H1939   1.083       .  S
C1930      C1935   1.480       .  S
C1930      C1931   1.410       .  A
C1931      C1932   1.397       .  A
C1931      S1936   1.805       .  S
C1932      C1933   1.407       .  A
C1932      H1937   1.083       .  S
C1933      C1934   1.419       .  A
C1934      S1938   1.801       .  S
C1935      C1940   1.407       .  A
C1935      C1944   1.401       .  A
S1936      H1952   1.405       .  S
S1938      H1949   1.408       .  S
C1940      C1941   1.399       .  A
C1940      S1945   1.808       .  S
C1941      C1942   1.408       .  A
C1941      H1946   1.082       .  S
C1942      C1943   1.419       .  A
C1943      C1944   1.403       .  A
C1943      S1947   1.799       .  S
C1944      H1948   1.083       .  S
S1945      H1950   1.407       .  S
S1947      H1951   1.408       .  S
