geometry optimzed in LAMMPS
_audit_creation_date              2020-12-01 
_audit_creation_method            'lammps2cif' 
_symmetry_space_group_name_H-M    'P1' 
_symmetry_Int_Tables_number       1 
_symmetry_cell_setting            triclinic 
loop_ 
_symmetry_equiv_pos_as_xyz 
  x,y,z 
_cell_length_a                    98.26910211 
_cell_length_b                    98.19510922379402 
_cell_length_c                    39.411205585289544 
_cell_angle_alpha                 91.20834412311622 
_cell_angle_beta                  88.85294976446991 
_cell_angle_gamma                 124.14091251987037 
loop_ 
_atom_site_label 
_atom_site_type_symbol 
_atom_site_fract_x 
_atom_site_fract_y 
_atom_site_fract_z 
_atom_site_charge 
O1          O  0.65789274  0.88950094  0.33690078    -0.55300
C2          C  0.63706715  0.91251209  0.36718980     0.77300
O3          O  0.68083910  0.92911583  0.42013289    -0.56500
C4          C  0.67104540  0.89019977  0.33989462     0.77300
C5          C  0.68889678  0.94403549  0.32033396     0.79600
Cd6        Cd  0.66816243  0.91627303  0.36430245     1.37500
O7          O  0.63847666  0.90187960  0.35203563    -0.55300
O8          O  0.67484665  0.93202678  0.31132369    -0.54200
C9          C  0.67106940  0.91619978  0.43674163     0.79600
O10         O  0.69362837  0.94331647  0.34945703    -0.56500
O11         O  0.64997284  0.92503542  0.37924398    -0.55000
O12         O  0.68311420  0.90310948  0.35321960    -0.55000
O13         O  0.66095895  0.90343395  0.41995070    -0.54100
O14         O  0.75852298  0.09802091  0.13127781    -0.55300
C15         C  0.71231768  0.06637951  0.10486299     0.77300
O16         O  0.74705419  0.06157781  0.04545805    -0.56500
C17         C  0.77273215  0.10207754  0.12239096     0.77300
C18         C  0.74040243  0.04585331  0.14445285     0.79600
Cd19       Cd  0.74380088  0.07125800  0.10202795     1.37500
O20         O  0.72470775  0.07918749  0.11764456    -0.55300
O21         O  0.73794186  0.05645076  0.15563954    -0.54200
C22         C  0.74631213  0.07210645  0.02913351     0.79600
O23         O  0.74494950  0.04710226  0.11377301    -0.56500
O24         O  0.71426463  0.05553635  0.09291072    -0.55000
O25         O  0.77379886  0.09165558  0.10534267    -0.55000
O26         O  0.74487980  0.08224463  0.04624158    -0.54100
O27         O  0.92382366  0.24493770  0.16361114    -0.55300
C28         C  0.87744695  0.22848249  0.16061381     0.77300
O29         O  0.91195799  0.27099701  0.23420649    -0.56500
C30         C  0.93742442  0.25711663  0.17408175     0.77300
C31         C  0.91266354  0.28274981  0.13352383     0.79600
Cd32       Cd  0.90856607  0.25753554  0.17775214     1.37500
O33         O  0.89076987  0.23119815  0.14867106    -0.55300
O34         O  0.91327119  0.27093009  0.12249681    -0.54200
C35         C  0.90817753  0.25838815  0.25074256     0.79600
O36         O  0.90995565  0.28299603  0.16496861    -0.56500
O37         O  0.87827552  0.23952446  0.17943788    -0.55000
O38         O  0.93796458  0.26978813  0.18341445    -0.55000
O39         O  0.90368013  0.24548495  0.23387089    -0.54100
O40         O  0.00088451  0.43722199  0.95273808    -0.55300
C41         C  0.01285074  0.40677958  0.91795912     0.77300
O42         O  0.95926472  0.38512702  0.92769202    -0.56500
C43         C  0.99066352  0.44080985  0.94695403     0.77300
C44         C  0.98602154  0.41605834  0.84753417     0.79600
Cd45       Cd  0.98664977  0.41149508  0.91914554     1.37500
O46         O  0.01417177  0.41863679  0.93449238    -0.55300
O47         O  0.99896210  0.42438490  0.86478548    -0.54200
C48         C  0.96183126  0.38355781  0.95823842     0.79600
O49         O  0.97292436  0.40560425  0.86322714    -0.56500
O50         O  0.99946940  0.39704006  0.90280834    -0.55000
O51         O  0.97823986  0.43063272  0.92950306    -0.55000
O52         O  0.97531510  0.39496547  0.97080646    -0.54100
O53         O  0.10834749  0.76392620  0.80482605    -0.55300
C54         C  0.06356277  0.73164473  0.77493038     0.77300
O55         O  0.09782657  0.72769102  0.71652658    -0.56500
C56         C  0.12288795  0.76950570  0.79523193     0.77300
C57         C  0.09382667  0.71353162  0.81708779     0.79600
Cd58       Cd  0.09565395  0.73787493  0.77365908     1.37500
O59         O  0.07558674  0.74460895  0.78811302    -0.55300
O60         O  0.08882727  0.72239202  0.82639423    -0.54200
C61         C  0.09906149  0.73949192  0.70092517     0.79600
O62         O  0.10022514  0.71603705  0.78775225    -0.56500
O63         O  0.06615735  0.72128777  0.76271250    -0.55000
O64         O  0.12518651  0.76010042  0.77735788    -0.55000
O65         O  0.09922754  0.75040788  0.71870288    -0.54100
O66         O  0.00248077  0.56351428  0.00428344    -0.55300
C67         C  0.98703672  0.59138778  0.03659364     0.77300
O68         O  0.02576846  0.59746596  0.09725289    -0.56500
C69         C  0.01298118  0.56053372  0.01189583     0.77300
C70         C  0.03985814  0.61637261  0.99995154     0.79600
Cd71       Cd  0.01455510  0.58878524  0.03876790     1.37500
O72         O  0.98608758  0.57889599  0.02429393    -0.55300
O73         O  0.02623156  0.60524931  0.98735944    -0.54200
C74         C  0.01338800  0.58507139  0.11121184     0.79600
O75         O  0.04222437  0.61480944  0.03066746    -0.56500
O76         O  0.00077679  0.60290275  0.04806025    -0.55000
O77         O  0.02466076  0.57088858  0.03082613    -0.55000
O78         O  0.00224511  0.57435944  0.09192332    -0.54100
O79         O  0.23007287  0.90484443  0.83014689    -0.62500
C80         C  0.27571491  0.93919712  0.85469488     0.77300
O81         O  0.23909671  0.95401768  0.83931704    -0.56500
C82         C  0.21552675  0.90038766  0.83697806     0.77300
C83         C  0.24134748  0.93225106  0.92861525     0.79600
Cd84       Cd  0.24342326  0.93231733  0.85582834     1.37500
O85         O  0.26427828  0.92695297  0.83842331    -0.55300
O86         O  0.24079296  0.92093422  0.91158354    -0.54200
C87         C  0.24599246  0.95640544  0.81053599     0.79600
O88         O  0.24205397  0.94359837  0.91221136    -0.56500
O89         O  0.27239587  0.94846016  0.86988716    -0.55000
O90         O  0.21362035  0.91087811  0.85124998    -0.55000
O91         O  0.25102953  0.94743874  0.80247355    -0.54100
O92         O  0.35671883  0.09287457  0.60719126    -0.55300
C93         C  0.33037608  0.11253190  0.61204314     0.77300
O94         O  0.31640763  0.07476695  0.53321262    -0.56500
C95         C  0.35591303  0.08067443  0.59352324     0.77300
C96         C  0.30354049  0.05651796  0.63251077     0.79600
Cd97       Cd  0.32844563  0.08334463  0.59119842     1.37500
O98         O  0.34073561  0.10968660  0.62161852    -0.55300
O99         O  0.31670015  0.06858069  0.64491059    -0.54200
C100        C  0.32957085  0.08587125  0.51860765     0.79600
O101        O  0.30145828  0.05685382  0.60103159    -0.56500
O102        O  0.31861138  0.10160355  0.59403819    -0.55000
O103        O  0.34228371  0.06940038  0.58117766    -0.55000
O104        O  0.34151710  0.09576673  0.53730443    -0.54100
O105        O  0.33434905  0.23089396  0.65816957    -0.55300
C106        C  0.31452285  0.25630506  0.68851359     0.77300
O107        O  0.35596213  0.26684997  0.74575755    -0.56500
C108        C  0.34647522  0.23037127  0.66591378     0.77300
C109        C  0.36625138  0.28469746  0.64546390     0.79600
Cd110      Cd  0.34404420  0.25696151  0.68812705     1.37500
O111        O  0.31492171  0.24497985  0.67366236    -0.55300
O112        O  0.35366848  0.27168230  0.63383661    -0.54200
C113        C  0.34416513  0.25420498  0.76042475     0.79600
O114        O  0.36905507  0.28494642  0.67677010    -0.56500
O115        O  0.32775016  0.26809127  0.70124310    -0.55000
O116        O  0.35784011  0.24238514  0.68280722    -0.55000
O117        O  0.33312776  0.24290702  0.74183645    -0.54100
O118        O  0.43431232  0.43724611  0.45115374    -0.55300
C119        C  0.38851301  0.40716204  0.42024563     0.77300
O120        O  0.41750717  0.39717320  0.36623224    -0.56500
C121        C  0.44840680  0.44091643  0.44222381     0.77300
C122        C  0.41549811  0.38581605  0.46792894     0.79600
Cd123      Cd  0.41920540  0.41039862  0.42207961     1.37500
O124        O  0.40088946  0.41983923  0.43347603    -0.55300
O125        O  0.41055062  0.39491478  0.47555509    -0.54200
C126        C  0.42135706  0.40965954  0.34914606     0.79600
O127        O  0.42257518  0.38816909  0.43938295    -0.56500
O128        O  0.39008611  0.39580550  0.41031284    -0.55000
O129        O  0.44914780  0.43029223  0.42515633    -0.55000
O130        O  0.42518178  0.42249019  0.36556872    -0.54100
O131        O  0.67142047  0.77257971  0.29094043    -0.55300
C132        C  0.68448202  0.74155826  0.26413622     0.77300
O133        O  0.63076456  0.71999784  0.27145708    -0.56500
C134        C  0.66106543  0.77559490  0.28225138     0.77300
C135        C  0.65894870  0.74854190  0.18821922     0.79600
Cd136      Cd  0.65817141  0.74596788  0.26080863     1.37500
O137        O  0.68584017  0.75400411  0.27795016    -0.55300
O138        O  0.67090793  0.75861947  0.20673225    -0.54200
C139        C  0.63340675  0.71932888  0.30248798     0.79600
O140        O  0.64600975  0.73718496  0.20301329    -0.56500
O141        O  0.67100135  0.73111806  0.25007691    -0.55000
O142        O  0.64895794  0.76468174  0.26494533    -0.55000
O143        O  0.64684524  0.73117170  0.31437656    -0.54100
O144        O  0.57141175  0.56841430  0.48627018    -0.55300
C145        C  0.61687774  0.60109109  0.52080015     0.77300
O146        O  0.58163403  0.61719015  0.50819726    -0.56500
C147        C  0.55691237  0.56405495  0.49348186     0.77300
C148        C  0.57981224  0.58928554  0.59131336     0.79600
Cd149      Cd  0.58454492  0.59405429  0.51929543     1.37500
O150        O  0.60547160  0.58836151  0.50563307    -0.55300
O151        O  0.57990481  0.57909979  0.57144659    -0.54200
C152        C  0.58666216  0.61901171  0.47772566     0.79600
O153        O  0.58090705  0.60152187  0.57805174    -0.56500
O154        O  0.61365497  0.61101322  0.53285895    -0.55000
O155        O  0.55514863  0.57379196  0.51146573    -0.55000
O156        O  0.59048578  0.60940004  0.46670314    -0.54100
O157        O  0.91180133  0.25844937  0.60548435    -0.55300
C158        C  0.89521110  0.21197299  0.60413918     0.77300
O159        O  0.93814637  0.24672043  0.53296129    -0.56500
C160        C  0.92404530  0.27227269  0.59609829     0.77300
C161        C  0.94906455  0.24833638  0.63532723     0.79600
Cd162      Cd  0.92430423  0.24350385  0.58903276     1.37500
O163        O  0.89756824  0.22509614  0.61649582    -0.55300
O164        O  0.93854152  0.25136476  0.64359263    -0.54200
C165        C  0.92616773  0.24437019  0.51600119     0.79600
O166        O  0.94819041  0.24274887  0.60562932    -0.56500
O167        O  0.90656179  0.21320833  0.58584941    -0.55000
O168        O  0.93655644  0.27291459  0.58505114    -0.55000
O169        O  0.91358902  0.24119796  0.53246694    -0.54100
O170        O  0.10276972  0.33238901  0.82599115    -0.55300
C171        C  0.07396182  0.34790240  0.86157282     0.77300
O172        O  0.05064210  0.29370105  0.84438748    -0.56500
C173        C  0.10432253  0.32072780  0.83200570     0.77300
C174        C  0.07979582  0.31948285  0.92923060     0.79600
Cd175      Cd  0.07672073  0.32049742  0.85752286     1.37500
O176        O  0.08587238  0.34912106  0.84544343    -0.55300
O177        O  0.09062352  0.33135237  0.91147061    -0.54200
C178        C  0.04921223  0.29795646  0.81527651     0.79600
O179        O  0.06762222  0.30744982  0.91386390    -0.56500
O180        O  0.06339323  0.33415728  0.87449530    -0.55000
O181        O  0.09293429  0.30872552  0.84869831    -0.55000
O182        O  0.06059494  0.31212246  0.80544856    -0.54100
O183        O  0.76654123  0.09206338  0.65260389    -0.55300
C184        C  0.73591812  0.04806204  0.69270589     0.77300
O185        O  0.72928940  0.08183230  0.73944170    -0.56500
C186        C  0.77099548  0.10674072  0.65791368     0.77300
C187        C  0.71495505  0.07393075  0.63997461     0.79600
Cd188      Cd  0.74061430  0.07932873  0.68457511     1.37500
O189        O  0.74818495  0.05926175  0.67613708    -0.55300
O190        O  0.72361691  0.06840164  0.63317184    -0.54200
C191        C  0.74159971  0.08511649  0.75645596     0.79600
O192        O  0.71820238  0.08228761  0.66709419    -0.56500
O193        O  0.72570312  0.05105488  0.70376983    -0.55000
O194        O  0.76123174  0.10893008  0.67461953    -0.55000
O195        O  0.75367191  0.08688485  0.74016554    -0.54100
O196        O  0.56086162  0.99579591  0.44754618    -0.55300
C197        C  0.58163023  0.97141866  0.42114000     0.77300
O198        O  0.59972433  0.01678590  0.36328547    -0.56500
C199        C  0.56073468  0.00765962  0.43620593     0.77300
C200        C  0.61317687  0.02394204  0.46369481     0.79600
Cd201      Cd  0.58634739  0.00298305  0.41814275     1.37500
O202        O  0.56960252  0.97271220  0.42513581    -0.55300
O203        O  0.59954713  0.01177204  0.47425867    -0.54200
C204        C  0.58874531  0.00495148  0.34533432     0.79600
O205        O  0.61448993  0.02673569  0.43220287    -0.56500
O206        O  0.59571709  0.98458271  0.41773193    -0.55000
O207        O  0.57262949  0.01771640  0.41730982    -0.55000
O208        O  0.57686810  0.99286678  0.36079311    -0.54100
O209        O  0.23553118  0.90150110  0.29681530    -0.55300
C210        C  0.26883117  0.94934670  0.27472517     0.77300
O211        O  0.28619657  0.91516987  0.27227629    -0.56500
C212        C  0.23095397  0.88773450  0.28362647     0.77300
C213        C  0.25938846  0.91730895  0.19348120     0.79600
Cd214      Cd  0.26208072  0.91718906  0.26596180     1.37500
O215        O  0.25624786  0.93714938  0.28864686    -0.55300
O216        O  0.25144963  0.92051916  0.21380798    -0.54200
C217        C  0.28821603  0.91909292  0.30345255     0.79600
O218        O  0.26868911  0.91368320  0.20626581    -0.56500
O219        O  0.27850226  0.94677289  0.25887901    -0.55000
O220        O  0.24096370  0.88735588  0.26368126    -0.55000
O221        O  0.27802323  0.92149693  0.31729245    -0.54100
O222        O  0.44484336  0.01077389  0.48216255    -0.55300
C223        C  0.41746833  0.02635292  0.51766435     0.77300
O224        O  0.39462259  0.97002477  0.50048162    -0.56500
C225        C  0.44684456  0.99935595  0.48740255     0.77300
C226        C  0.42219283  0.99706216  0.58635819     0.79600
Cd227      Cd  0.41892430  0.99811500  0.51449710     1.37500
O228        O  0.42811098  0.02638397  0.49896951    -0.55300
O229        O  0.43379453  0.00776543  0.56782525    -0.54200
C230        C  0.39120602  0.97430601  0.47362658     0.79600
O231        O  0.40901955  0.98610624  0.57176432    -0.56500
O232        O  0.40745358  0.01334009  0.53364689    -0.55000
O233        O  0.43569989  0.98707583  0.50386294    -0.55000
O234        O  0.40045325  0.98928688  0.46575535    -0.54100
O235        O  0.89240540  0.65811509  0.13558980    -0.55300
C236        C  0.92255545  0.64382874  0.10714158     0.77300
O237        O  0.93113171  0.68680641  0.05735504    -0.56500
C238        C  0.89207123  0.67079591  0.13550909     0.77300
C239        C  0.94726089  0.69328838  0.15681530     0.79600
Cd240      Cd  0.92043229  0.67173060  0.11192348     1.37500
O241        O  0.91196900  0.64347180  0.12664249    -0.55300
O242        O  0.93497440  0.67953840  0.16635566    -0.54200
C243        C  0.91926103  0.67544429  0.04011628     0.79600
O244        O  0.94715155  0.69746686  0.12672008    -0.56500
O245        O  0.93214174  0.65694040  0.09113764    -0.55000
O246        O  0.90496601  0.68406353  0.12579716    -0.55000
O247        O  0.90789664  0.66314654  0.05610940    -0.54100
O248        O  0.10410974  0.76477230  0.32732698    -0.55300
C249        C  0.07520827  0.71946584  0.36558248     0.77300
O250        O  0.07042162  0.75124431  0.42251939    -0.56500
C251        C  0.10760666  0.77908045  0.33358636     0.77300
C252        C  0.05193112  0.74508849  0.32483599     0.79600
Cd253      Cd  0.07927761  0.75061125  0.36325993     1.37500
O254        O  0.08745184  0.73136168  0.35023333    -0.55300
O255        O  0.06066342  0.74005139  0.31468538    -0.54200
C256        C  0.08406393  0.75563951  0.43525767     0.79600
O257        O  0.05586129  0.75303146  0.35266901    -0.56500
O258        O  0.06467912  0.72174725  0.37794534    -0.55000
O259        O  0.09771450  0.78027431  0.35234629    -0.55000
O260        O  0.09555677  0.75889328  0.41489793    -0.54100
O261        O  0.43529017  0.43236586  0.97549050    -0.55300
C262        C  0.40532745  0.38507128  0.99880423     0.77300
O263        O  0.39825016  0.41839551  0.06016907    -0.56500
C264        C  0.43850468  0.44603896  0.98647220     0.77300
C265        C  0.38219184  0.41130976  0.96071206     0.79600
Cd266      Cd  0.40810123  0.41560551  0.00319867     1.37500
O267        O  0.41737479  0.39784211  0.98519533    -0.55300
O268        O  0.39339107  0.40987085  0.94901089    -0.54200
C269        C  0.40835408  0.41692502  0.07637290     0.79600
O270        O  0.38300800  0.41510534  0.99180689    -0.56500
O271        O  0.39410756  0.38611040  0.01199672    -0.55000
O272        O  0.42743176  0.44586624  0.00372016    -0.55000
O273        O  0.41824169  0.41520472  0.05906543    -0.54100
O274        O  0.22382483  0.32564807  0.78316574    -0.55300
C275        C  0.25052934  0.30844799  0.75214984     0.77300
O276        O  0.26083932  0.35130223  0.69709060    -0.56500
C277        C  0.22137514  0.33630940  0.77374710     0.77300
C278        C  0.27675987  0.36056372  0.79573975     0.79600
Cd279      Cd  0.24990785  0.33726638  0.75236781     1.37500
O280        O  0.23869275  0.30823297  0.76595421    -0.55300
O281        O  0.26415003  0.34757202  0.80718848    -0.54200
C282        C  0.24946315  0.33939537  0.67993361     0.79600
O283        O  0.27688654  0.36327293  0.76448115    -0.56500
O284        O  0.26216724  0.32193191  0.74005284    -0.55000
O285        O  0.23235169  0.34784585  0.75544557    -0.55000
O286        O  0.23821061  0.32711062  0.69614459    -0.54100
O287        O  0.75323973  0.68053194  0.18893606    -0.55300
C288        C  0.77402873  0.65528190  0.17818543     0.77300
O289        O  0.73539660  0.63934654  0.25910270    -0.56500
C290        C  0.74104032  0.67912236  0.20401575     0.77300
C291        C  0.71916376  0.62863774  0.15666669     0.79600
Cd292      Cd  0.74482867  0.65232663  0.20195516     1.37500
O293        O  0.77183904  0.66663952  0.17386127    -0.55300
O294        O  0.73093822  0.64262028  0.14684650    -0.54200
C295        C  0.74785086  0.65117497  0.27424446     0.79600
O296        O  0.71920000  0.62519284  0.18744146    -0.56500
O297        O  0.76252925  0.64229684  0.19232469    -0.55000
O298        O  0.73038139  0.66529508  0.21651959    -0.55000
O299        O  0.75882423  0.66272007  0.25610915    -0.54100
O300        O  0.59426783  0.59942382  0.94630250    -0.55300
C301        C  0.56584857  0.55066368  0.95274216     0.77300
O302        O  0.60712447  0.57362707  0.87272697    -0.56500
C303        C  0.60692804  0.61049564  0.93044543     0.77300
C304        C  0.62220318  0.57840334  0.97265828     0.79600
Cd305      Cd  0.59795555  0.57728307  0.92986662     1.37500
O306        O  0.57099204  0.56553511  0.95807068    -0.55300
O307        O  0.61434471  0.58457211  0.98166507    -0.54200
C308        C  0.59632216  0.57414369  0.85695006     0.79600
O309        O  0.61874871  0.57123056  0.94398233    -0.56500
O310        O  0.57566425  0.54791374  0.93810695    -0.55000
O311        O  0.61575861  0.60644058  0.91596077    -0.55000
O312        O  0.58614108  0.57525209  0.87463911    -0.54100
O313        O  0.67845063  0.77779903  0.81913808    -0.55300
C314        C  0.66676446  0.73527246  0.85655935     0.77300
O315        O  0.72172399  0.77773254  0.83215349    -0.56500
C316        C  0.68773246  0.79278508  0.82769710     0.77300
C317        C  0.69550851  0.77320373  0.92285240     0.79600
Cd318      Cd  0.69342461  0.76890941  0.85043630     1.37500
O319        O  0.66512744  0.74499921  0.83936143    -0.55300
O320        O  0.68379353  0.77139869  0.90606951    -0.54200
C321        C  0.71704025  0.76856588  0.80595416     0.79600
O322        O  0.70721842  0.77422836  0.90621922    -0.56500
O323        O  0.68070420  0.74086314  0.86911555    -0.55000
O324        O  0.70030523  0.79705581  0.84484211    -0.55000
O325        O  0.70184574  0.76022760  0.79976535    -0.54100
O326        O  0.78152134  0.67896209  0.64645545    -0.55300
C327        C  0.73615652  0.66240317  0.61509073     0.77300
O328        O  0.77308217  0.71758141  0.62100256    -0.56500
C329        C  0.79599908  0.68861170  0.63526586     0.77300
C330        C  0.77120507  0.68824156  0.54063754     0.79600
Cd331      Cd  0.76937311  0.69041076  0.61334226     1.37500
O332        O  0.74728554  0.66204688  0.62973558    -0.55300
O333        O  0.76781213  0.67663616  0.55995975    -0.54200
C334        C  0.76856309  0.71546237  0.65182029     0.79600
O335        O  0.77469974  0.70156812  0.55462875    -0.56500
O336        O  0.74014646  0.67585312  0.60221903    -0.55000
O337        O  0.79855890  0.69990415  0.61574284    -0.55000
O338        O  0.76519254  0.70231764  0.66522553    -0.54100
O339        O  0.65282461  0.88631289  0.81101640    -0.55300
C340        C  0.67190608  0.92814771  0.78379007     0.77300
O341        O  0.63213389  0.88374634  0.72107362    -0.56500
C342        C  0.64387064  0.87184422  0.79918746     0.77300
C343        C  0.61461915  0.89723122  0.81428037     0.79600
Cd344      Cd  0.64059405  0.89750713  0.77768401     1.37500
O345        O  0.67044222  0.91580932  0.76930892    -0.55300
O346        O  0.62478311  0.89548077  0.82918904    -0.54200
C347        C  0.63863118  0.89705370  0.70494464     0.79600
O348        O  0.61587935  0.89842948  0.78235926    -0.56500
O349        O  0.65921747  0.92609087  0.79788948    -0.55000
O350        O  0.63273304  0.86886708  0.77873436    -0.55000
O351        O  0.64483529  0.91015509  0.72225621    -0.54100
O352        O  0.55251409  0.98686352  0.97356209    -0.55300
C353        C  0.59517288  0.00732984  0.00692461     0.77300
O354        O  0.55490214  0.97209089  0.06568353    -0.56500
C355        C  0.53832183  0.97792583  0.98661776     0.77300
C356        C  0.56335146  0.94958401  0.96772102     0.79600
Cd357      Cd  0.56474461  0.97549505  0.00680572     1.37500
O358        O  0.58269193  0.00457889  0.02315546    -0.55300
O359        O  0.56936982  0.96372784  0.95574682    -0.54200
C360        C  0.56674239  0.97225166  0.07814567     0.79600
O361        O  0.55738262  0.94702669  0.99743611    -0.56500
O362        O  0.59337574  0.99586232  0.98805021    -0.55000
O363        O  0.53599077  0.96720435  0.00748937    -0.55000
O364        O  0.57684745  0.97236195  0.05761197    -0.54100
O365        O  0.99192880  0.55393247  0.47651727    -0.55300
C366        C  0.00956952  0.59960840  0.45153556     0.77300
O367        O  0.96827122  0.56520949  0.39479967    -0.56500
C368        C  0.97971547  0.53943473  0.47094174     0.77300
C369        C  0.95746823  0.57048847  0.49506397     0.79600
Cd370      Cd  0.97989470  0.56748272  0.45192312     1.37500
O371        O  0.00833079  0.58855154  0.46993688    -0.55300
O372        O  0.97165734  0.57514533  0.50472251    -0.54200
C373        C  0.97911097  0.56426067  0.37916724     0.79600
O374        O  0.95322396  0.56389568  0.46586782    -0.56500
O375        O  0.99697728  0.59610359  0.43547013    -0.55000
O376        O  0.96700084  0.53771862  0.45888163    -0.55000
O377        O  0.98943157  0.56391480  0.39695859    -0.54100
O378        O  0.89639342  0.66310642  0.67055109    -0.55300
C379        C  0.93988344  0.67273064  0.69936166     0.77300
O380        O  0.89922108  0.63426956  0.75386425    -0.56500
C381        C  0.88119751  0.65231143  0.67428715     0.77300
C382        C  0.90626358  0.62343430  0.65347938     0.79600
Cd383      Cd  0.90569377  0.64728646  0.69681402     1.37500
O384        O  0.93042588  0.67434478  0.68113060    -0.55300
O385        O  0.91147864  0.63773387  0.64351830    -0.54200
C386        C  0.90179723  0.64693796  0.76942287     0.79600
O387        O  0.89980812  0.61958534  0.68284044    -0.56500
O388        O  0.93371133  0.65932386  0.71477604    -0.55000
O389        O  0.87709676  0.63873357  0.68685567    -0.55000
O390        O  0.90504859  0.65894169  0.75155232    -0.54100
O391        O  0.99579803  0.43185334  0.46930906    -0.55300
C392        C  0.97616523  0.38812359  0.51153224     0.77300
O393        O  0.03223822  0.42111982  0.49034362    -0.56500
C394        C  0.00653781  0.44648318  0.47826334     0.77300
C395        C  0.00977274  0.42585128  0.57584040     0.79600
Cd396      Cd  0.00646536  0.41937937  0.50393594     1.37500
O397        O  0.97680381  0.39914683  0.49413644    -0.55300
O398        O  0.99734454  0.42260631  0.55957036    -0.54200
C399        C  0.02722214  0.41326831  0.46252471     0.79600
O400        O  0.02135448  0.42674447  0.55895279    -0.56500
O401        O  0.98947714  0.39123546  0.52348077    -0.55000
O402        O  0.01799605  0.44880100  0.49687746    -0.55000
O403        O  0.01300641  0.40870513  0.45333860    -0.54100
O404        O  0.09682365  0.32463092  0.30715568    -0.55300
C405        C  0.05320127  0.30793169  0.26727647     0.77300
O406        O  0.08984421  0.36375250  0.29063343    -0.56500
C407        C  0.11155532  0.33482249  0.29805697     0.77300
C408        C  0.09094330  0.34066488  0.20247066     0.79600
Cd409      Cd  0.08544160  0.33696695  0.27439422     1.37500
O410        O  0.06388987  0.30762867  0.28395421    -0.55300
O411        O  0.08796722  0.32811851  0.21786003    -0.54200
C412        C  0.08107432  0.35848524  0.31727408     0.79600
O413        O  0.09211120  0.35215774  0.22028796    -0.56500
O414        O  0.05719114  0.32159263  0.25554827    -0.55000
O415        O  0.11448653  0.34670923  0.28007425    -0.55000
O416        O  0.07504837  0.34371268  0.32495403    -0.54100
O417        O  0.44282784  0.01064021  0.95827472    -0.55300
C418        C  0.40073276  0.00210428  0.92648096     0.77300
O419        O  0.44244784  0.05532939  0.93899955    -0.56500
C420        C  0.45806063  0.02015248  0.95234206     0.77300
C421        C  0.43975868  0.02655416  0.85621669     0.79600
Cd422      Cd  0.43511004  0.02684382  0.92817351     1.37500
O423        O  0.41006343  0.00046349  0.94503574    -0.55300
O424        O  0.43477728  0.01412188  0.87431804    -0.54200
C425        C  0.43610151  0.05228365  0.96844858     0.79600
O426        O  0.44334897  0.03969240  0.87126639    -0.56500
O427        O  0.40713214  0.01527358  0.91002263    -0.55000
O428        O  0.46299901  0.03340172  0.93712814    -0.55000
O429        O  0.43025318  0.03805599  0.97970089    -0.54100
O430        O  0.34842039  0.11289752  0.15535922    -0.55300
C431        C  0.33745840  0.07202549  0.19410966     0.77300
O432        O  0.39271807  0.11427805  0.16019542    -0.56500
C433        C  0.35856882  0.12821054  0.15967048     0.77300
C434        C  0.36930969  0.11019913  0.25537271     0.79600
Cd435      Cd  0.36496469  0.10491721  0.18345348     1.37500
O436        O  0.33607617  0.08165045  0.17593886    -0.55300
O437        O  0.37871684  0.10769479  0.23806200    -0.54200
C438        C  0.38722400  0.10366254  0.13643027     0.79600
O439        O  0.35944703  0.11196675  0.23927842    -0.56500
O440        O  0.35156123  0.07722056  0.20519933    -0.55000
O441        O  0.37215410  0.13296482  0.17319032    -0.55000
O442        O  0.37179256  0.09417602  0.13389666    -0.54100
O443        O  0.22301320  0.32502131  0.30721653    -0.55300
C444        C  0.27038270  0.34510640  0.32871786     0.77300
O445        O  0.23352949  0.30189951  0.39054672    -0.56500
C446        C  0.20920483  0.31417822  0.31981738     0.77300
C447        C  0.24109379  0.29252426  0.29187221     0.79600
Cd448      Cd  0.23843645  0.31529141  0.33440946     1.37500
O449        O  0.25785614  0.34455835  0.31924394    -0.55300
O450        O  0.24284659  0.30526061  0.27989920    -0.54200
C451        C  0.23842324  0.31496999  0.40739259     0.79600
O452        O  0.23725819  0.28973039  0.32295027    -0.56500
O453        O  0.26821884  0.33187087  0.33866588    -0.55000
O454        O  0.20859836  0.30329520  0.33760084    -0.55000
O455        O  0.24300013  0.32772845  0.39080226    -0.54100
O456        O  0.33294055  0.22914251  0.13334174    -0.55300
C457        C  0.35208909  0.26968918  0.09401420     0.77300
O458        O  0.31137106  0.22461274  0.04532821    -0.56500
C459        C  0.32326305  0.21436806  0.12365243     0.77300
C460        C  0.29663142  0.24172254  0.14132857     0.79600
Cd461      Cd  0.32008243  0.23979665  0.09988541     1.37500
O462        O  0.34934679  0.25611654  0.08373885    -0.55300
O463        O  0.30971396  0.24439315  0.15356407    -0.54200
C464        C  0.31345719  0.23650656  0.02862166     0.79600
O465        O  0.29388416  0.23740565  0.11046385    -0.56500
O466        O  0.34045530  0.26939903  0.10907361    -0.55000
O467        O  0.31148061  0.21109775  0.10487297    -0.55000
O468        O  0.31736230  0.24937659  0.04504233    -0.54100
C469        C  0.25492823  0.26675713  0.23606060     0.19500
C470        C  0.26745804  0.26596944  0.25010972    -0.09600
C471        C  0.27468902  0.25936501  0.23119992    -0.10500
C472        C  0.26944222  0.25348584  0.19809028     0.21100
C473        C  0.25676152  0.25406627  0.18414326    -0.12500
C474        C  0.24951799  0.26068340  0.20308759    -0.10800
C475        C  0.27773776  0.24775508  0.17797301     0.02000
C476        C  0.28576546  0.24418741  0.16128157    -0.30800
C477        C  0.24831759  0.27457341  0.25496926     0.03400
C478        C  0.24412957  0.28215782  0.27145539    -0.32500
H479        H  0.27183366  0.27072178  0.27547887     0.14500
H480        H  0.28456129  0.25910596  0.24217380     0.14300
H481        H  0.25267832  0.24967272  0.15847514     0.14100
H482        H  0.23991782  0.26131587  0.19184787     0.13200
C483        C  0.33423364  0.18077899  0.13902394     0.19500
C484        C  0.33485710  0.17262701  0.11000830    -0.09600
C485        C  0.34007828  0.16204220  0.11245430    -0.10500
C486        C  0.34474086  0.15961093  0.14391737     0.21100
C487        C  0.34400820  0.16768356  0.17294612    -0.12500
C488        C  0.33879125  0.17826193  0.17050032    -0.10800
C489        C  0.35020265  0.14880327  0.14666873     0.02000
C490        C  0.35445442  0.13960310  0.15107402    -0.30800
C491        C  0.32941442  0.19209579  0.13621684     0.03400
C492        C  0.32606678  0.20201334  0.13206268    -0.32500
H493        H  0.33141511  0.17453775  0.08550832     0.14500
H494        H  0.34054420  0.15582806  0.08986821     0.14300
H495        H  0.34753556  0.16585038  0.19742884     0.14100
H496        H  0.33841391  0.18454773  0.19306179     0.13200
C497        C  0.42505517  0.07947641  0.02663657     0.19500
C498        C  0.43566222  0.09418714  0.04455572    -0.09600
C499        C  0.42921274  0.10071001  0.06649623    -0.10500
C500        C  0.41213500  0.09253926  0.07058042     0.21100
C501        C  0.40158735  0.07794771  0.05235415    -0.12500
C502        C  0.40801036  0.07145483  0.03050253    -0.10800
C503        C  0.40520736  0.09861900  0.09409249     0.02000
C504        C  0.39783711  0.10197350  0.11363303    -0.30800
C505        C  0.43137538  0.07206349  0.00527726     0.03400
C506        C  0.43475868  0.06403801  0.98795492    -0.32500
H507        H  0.44886734  0.10048147  0.04189723     0.14500
H508        H  0.43750824  0.11197418  0.08051231     0.14300
H509        H  0.38837547  0.07147276  0.05534796     0.14100
H510        H  0.39967091  0.06004541  0.01693627     0.13200
C511        C  0.14698987  0.32622115  0.31127596     0.19500
C512        C  0.14264202  0.31036349  0.31893298    -0.09600
C513        C  0.15471241  0.30698290  0.31944424    -0.10500
C514        C  0.17114638  0.31943746  0.31216529     0.21100
C515        C  0.17544350  0.33525826  0.30445339    -0.12500
C516        C  0.16340078  0.33863289  0.30395696    -0.10800
C517        C  0.18374315  0.31623199  0.31331631     0.02000
C518        C  0.19501497  0.31464665  0.31529259    -0.30800
C519        C  0.13460652  0.32968651  0.30974573     0.03400
C520        C  0.12423655  0.33246007  0.30615883    -0.32500
H521        H  0.12995899  0.30064134  0.32440006     0.14500
H522        H  0.15125162  0.29471451  0.32553410     0.14300
H523        H  0.18811745  0.34499508  0.29887610     0.14100
H524        H  0.16687387  0.35090056  0.29777559     0.13200
C525        C  0.05177920  0.39793585  0.40666706     0.19500
C526        C  0.06842167  0.40408290  0.41102342    -0.09600
C527        C  0.07546483  0.39695174  0.39323009    -0.10500
C528        C  0.06589343  0.38363746  0.37100159     0.21100
C529        C  0.04930278  0.37760613  0.36644965    -0.12500
C530        C  0.04227627  0.38472410  0.38420020    -0.10800
C531        C  0.07286776  0.37592569  0.35309050     0.02000
C532        C  0.07746265  0.36853161  0.33724559    -0.30800
C533        C  0.04420557  0.40467343  0.42605486     0.03400
C534        C  0.03696971  0.40924876  0.44259361    -0.32500
H535        H  0.07589285  0.41425820  0.42840134     0.14500
H536        H  0.08829967  0.40172086  0.39699433     0.14300
H537        H  0.04176373  0.36731195  0.34937335     0.14100
H538        H  0.02938941  0.37981308  0.38067541     0.13200
C539        C  0.99790537  0.48184834  0.46908079     0.19500
C540        C  0.00198861  0.49203608  0.49780594    -0.09600
C541        C  0.99695460  0.50279500  0.50054558    -0.10500
C542        C  0.98775408  0.50335863  0.47462336     0.21100
C543        C  0.98368956  0.49319549  0.44584249    -0.12500
C544        C  0.98872210  0.48241950  0.44310746    -0.10800
C545        C  0.98327300  0.51499334  0.47665464     0.02000
C546        C  0.98075315  0.52565201  0.47600832    -0.30800
C547        C  0.00232520  0.47016206  0.46747506     0.03400
C548        C  0.00504632  0.45969944  0.46987789    -0.32500
H549        H  0.00897126  0.49158246  0.51816503     0.14500
H550        H  0.00027859  0.51069884  0.52275826     0.14300
H551        H  0.97669563  0.49364820  0.42551619     0.14100
H552        H  0.98538604  0.47449655  0.42092899     0.13200
C553        C  0.91771988  0.59619167  0.59545376     0.19500
C554        C  0.92840441  0.59271598  0.60968195    -0.09600
C555        C  0.93508528  0.58585496  0.58962538    -0.10500
C556        C  0.93115353  0.58241223  0.55513677     0.21100
C557        C  0.92021408  0.58558203  0.54104183    -0.12500
C558        C  0.91352891  0.59245136  0.56111605    -0.10800
C559        C  0.93918025  0.57668741  0.53385838     0.02000
C560        C  0.94693539  0.57311462  0.51606337    -0.30800
C561        C  0.91190971  0.60447003  0.61562330     0.03400
C562        C  0.90838013  0.61244440  0.63279953    -0.32500
H563        H  0.93184429  0.59563057  0.63611174     0.14500
H564        H  0.94359536  0.58357349  0.60083628     0.14300
H565        H  0.91713621  0.58308128  0.51438733     0.14100
H566        H  0.90537242  0.59515681  0.54969737     0.13200
C567        C  0.48732263  0.00391756  0.96873780     0.19500
C568        C  0.50434972  0.01402786  0.96345729    -0.09600
C569        C  0.51378527  0.00749349  0.96549472    -0.10500
C570        C  0.50624117  0.99080991  0.97271193     0.21100
C571        C  0.48920047  0.98066812  0.97802496    -0.12500
C572        C  0.47974629  0.98721374  0.97596984    -0.10800
C573        C  0.51619434  0.98439445  0.97562990     0.02000
C574        C  0.52570324  0.98050482  0.97944978    -0.30800
C575        C  0.47758492  0.01056525  0.96558535     0.03400
C576        C  0.46907053  0.01559632  0.96099049    -0.32500
H577        H  0.51031251  0.02693057  0.95767185     0.14500
H578        H  0.52697009  0.01545453  0.96151732     0.14300
H579        H  0.48325940  0.96777022  0.98378970     0.14100
H580        H  0.46656133  0.97926885  0.97991006     0.13200
C581        C  0.57209864  0.92079640  0.90930726     0.19500
C582        C  0.58153456  0.92915928  0.88055847    -0.09600
C583        C  0.58834767  0.92253461  0.86038147    -0.10500
C584        C  0.58579068  0.90746740  0.86873465     0.21100
C585        C  0.57605361  0.89886976  0.89711283    -0.12500
C586        C  0.56921213  0.90552975  0.91739616    -0.10800
C587        C  0.59416302  0.90161750  0.84930634     0.02000
C588        C  0.60272871  0.89861220  0.83299818    -0.30800
C589        C  0.56655044  0.92866860  0.93139029     0.03400
C590        C  0.56395703  0.93729555  0.94865707    -0.32500
H591        H  0.58396976  0.94102798  0.87419922     0.14500
H592        H  0.59595014  0.92936535  0.83869461     0.14300
H593        H  0.57407598  0.88725419  0.90397366     0.14100
H594        H  0.56203328  0.89899598  0.93970611     0.13200
C595        C  0.84947450  0.66558557  0.65685922     0.19500
C596        C  0.83430638  0.65572368  0.64060554    -0.09600
C597        C  0.82411246  0.66136240  0.63730854    -0.10500
C598        C  0.82902464  0.67687792  0.65027412     0.21100
C599        C  0.84422231  0.68676951  0.66638323    -0.12500
C600        C  0.85441614  0.68113174  0.66967609    -0.10800
C601        C  0.81838824  0.68251919  0.64702486     0.02000
C602        C  0.80869762  0.68617415  0.64290405    -0.30800
C603        C  0.85992252  0.65976326  0.66090070     0.03400
C604        C  0.86923638  0.65569949  0.66585862    -0.32500
H605        H  0.83034429  0.64368239  0.63062612     0.14500
H606        H  0.81238615  0.65361302  0.62476079     0.14300
H607        H  0.84815638  0.69878628  0.67646641     0.14100
H608        H  0.86611892  0.68886078  0.68232872     0.13200
C609        C  0.65800671  0.84085254  0.81388202     0.19500
C610        C  0.67456336  0.84850110  0.82241421    -0.09600
C611        C  0.68145563  0.83934262  0.82305382    -0.10500
C612        C  0.67182098  0.82251364  0.81504246     0.21100
C613        C  0.65523942  0.81484590  0.80669974    -0.12500
C614        C  0.64834652  0.82400669  0.80605426    -0.10800
C615        C  0.67872080  0.81294726  0.81658763     0.02000
C616        C  0.68358234  0.80420958  0.81998855    -0.30800
C617        C  0.65127213  0.85053270  0.81142254     0.03400
C618        C  0.64692507  0.85964513  0.80720214    -0.32500
H619        H  0.68216124  0.86155353  0.82830149     0.14500
H620        H  0.69425512  0.84536097  0.82976893     0.14300
H621        H  0.64765755  0.80180432  0.80070221     0.14100
H622        H  0.63556283  0.81800410  0.79922442     0.13200
C623        C  0.74465607  0.75814288  0.74681102     0.19500
C624        C  0.74584084  0.75985840  0.71142437    -0.09600
C625        C  0.75253015  0.75288057  0.69171156    -0.10500
C626        C  0.75806840  0.74413242  0.70724571     0.21100
C627        C  0.75721282  0.74275342  0.74267168    -0.12500
C628        C  0.75053836  0.74972130  0.76234976    -0.10800
C629        C  0.76345756  0.73552948  0.68690846     0.02000
C630        C  0.76664204  0.72706816  0.67056227    -0.30800
C631        C  0.73633620  0.76386915  0.76703605     0.03400
C632        C  0.72822786  0.76704879  0.78466483    -0.32500
H633        H  0.74123203  0.76621939  0.69902760     0.14500
H634        H  0.75299958  0.75395137  0.66434648     0.14300
H635        H  0.76131963  0.73593019  0.75502488     0.14100
H636        H  0.74958248  0.74817811  0.78962529     0.13200
C637        C  0.63429664  0.68840939  0.88512110     0.19500
C638        C  0.63543121  0.68604784  0.91964354    -0.09600
C639        C  0.62835615  0.67016288  0.93195653    -0.10500
C640        C  0.62011983  0.65661638  0.90978377     0.21100
C641        C  0.61845575  0.65894864  0.87553379    -0.12500
C642        C  0.62554736  0.67482979  0.86321530    -0.10800
C643        C  0.61463985  0.64049155  0.92119741     0.02000
C644        C  0.61086530  0.62684646  0.92759449    -0.30800
C645        C  0.64368468  0.70475656  0.87176342     0.03400
C646        C  0.65340968  0.71866349  0.86273869    -0.32500
H647        H  0.64231045  0.69649550  0.93670879     0.14500
H648        H  0.62980496  0.66849541  0.95843572     0.14300
H649        H  0.61219877  0.64854780  0.85814620     0.14100
H650        H  0.62474124  0.67654745  0.83641860     0.13200
C651        C  0.76402176  0.67507370  0.44080906     0.19500
C652        C  0.74753268  0.66499969  0.43086831    -0.09600
C653        C  0.74355983  0.65829841  0.39798975    -0.10500
C654        C  0.75604511  0.66156886  0.37487756     0.21100
C655        C  0.77253024  0.67159655  0.38486119    -0.12500
C656        C  0.77650409  0.67829999  0.41774153    -0.10800
C657        C  0.75205762  0.65549868  0.34037857     0.02000
C658        C  0.74945969  0.65212933  0.31053794    -0.30800
C659        C  0.76802001  0.68164616  0.47495494     0.03400
C660        C  0.77037548  0.68584108  0.50445048    -0.32500
H661        H  0.73775934  0.66234473  0.44851209     0.14500
H662        H  0.73078174  0.65069173  0.39051720     0.14300
H663        H  0.78230914  0.67434210  0.36714453     0.14100
H664        H  0.78928692  0.68600004  0.42514852     0.13200
C665        C  0.65743910  0.58773550  0.03988597     0.19500
C666        C  0.67296799  0.59106118  0.03154108    -0.09600
C667        C  0.68531844  0.59764089  0.05611810    -0.10500
C668        C  0.68220689  0.60093259  0.08915235     0.21100
C669        C  0.66654568  0.59716531  0.09764946    -0.12500
C670        C  0.65422849  0.59059627  0.07314957    -0.10800
C671        C  0.69529426  0.60929146  0.11363793     0.02000
C672        C  0.70617323  0.61745941  0.13381246    -0.30800
C673        C  0.64516605  0.58268529  0.01410312     0.03400
C674        C  0.63468098  0.57989031  0.99412970    -0.32500
H675        H  0.67566318  0.58900497  0.00589383     0.14500
H676        H  0.69739271  0.60057295  0.04912918     0.14300
H677        H  0.66398584  0.59973409  0.12298495     0.14100
H678        H  0.64232758  0.58818964  0.07991014     0.13200
C679        C  0.24225916  0.32288170  0.50934086     0.19500
C680        C  0.22904149  0.32081220  0.52838973    -0.09600
C681        C  0.23119232  0.32582167  0.56246211    -0.10500
C682        C  0.24658341  0.33298653  0.57762363     0.21100
C683        C  0.25982919  0.33513881  0.55853137    -0.12500
C684        C  0.25767811  0.33013021  0.52444540    -0.10800
C685        C  0.24850456  0.33725796  0.61318801     0.02000
C686        C  0.24941296  0.33933720  0.64353747    -0.30800
C687        C  0.24018071  0.31821372  0.47397734     0.03400
C688        C  0.23893205  0.31563423  0.44377656    -0.32500
H689        H  0.21710182  0.31534537  0.51691376     0.14500
H690        H  0.22083556  0.32399803  0.57704244     0.14300
H691        H  0.27175596  0.34056429  0.57004207     0.14100
H692        H  0.26802314  0.33191330  0.50987991     0.13200
C693        C  0.40034142  0.34323956  0.02519020     0.19500
C694        C  0.40195723  0.34302978  0.06040759    -0.09600
C695        C  0.39569258  0.32812868  0.07681696    -0.10500
C696        C  0.38785940  0.31342122  0.05801184     0.21100
C697        C  0.38714538  0.31375232  0.02256490    -0.12500
C698        C  0.39336965  0.32865275  0.00616008    -0.10800
C699        C  0.37805449  0.29796382  0.07504731     0.02000
C700        C  0.36723026  0.28490064  0.08628920    -0.30800
C701        C  0.40361284  0.35792749  0.00979809     0.03400
C702        C  0.40481175  0.37028537  0.00151300    -0.32500
H703        H  0.40718107  0.35423914  0.07538282     0.14500
H704        H  0.39608266  0.32797917  0.10426644     0.14300
H705        H  0.38088696  0.30240588  0.00785797     0.14100
H706        H  0.39190673  0.32866405  0.97898093     0.13200
C707        C  0.51821358  0.51319758  0.97151498     0.19500
C708        C  0.51408606  0.49750766  0.97988765    -0.09600
C709        C  0.49758191  0.48434209  0.98216744    -0.10500
C710        C  0.48509275  0.48676934  0.97605203     0.21100
C711        C  0.48918913  0.50249890  0.96808360    -0.12500
C712        C  0.50571966  0.51568466  0.96579672    -0.10800
C713        C  0.46814627  0.47305269  0.97800038     0.02000
C714        C  0.45431395  0.46099504  0.98079776    -0.30800
C715        C  0.53523189  0.52652367  0.96728987     0.03400
C716        C  0.54937703  0.53752008  0.96184732    -0.32500
H717        H  0.52362217  0.49541428  0.98425953     0.14500
H718        H  0.49455861  0.47224178  0.98844252     0.14300
H719        H  0.47964111  0.50453341  0.96340211     0.14100
H720        H  0.50875671  0.52775390  0.95920033     0.13200
C721        C  0.31663626  0.38690462  0.85682635     0.19500
C722        C  0.31510104  0.38901533  0.89166979    -0.09600
C723        C  0.32868715  0.39529881  0.91293269    -0.10500
C724        C  0.34388079  0.39949661  0.89947698     0.21100
C725        C  0.34546729  0.39765616  0.86454602    -0.12500
C726        C  0.33189894  0.39138335  0.84330833    -0.10800
C727        C  0.35758815  0.40481529  0.92160153     0.02000
C728        C  0.36893444  0.40832884  0.93970285    -0.30800
C729        C  0.30238853  0.37908495  0.83530584     0.03400
C730        C  0.29057446  0.37132664  0.81713098    -0.32500
H731        H  0.30334356  0.38548013  0.90249059     0.14500
H732        H  0.32726250  0.39656769  0.93991193     0.14300
H733        H  0.35710441  0.40075397  0.85383529     0.14100
H734        H  0.33322093  0.38968889  0.81648071     0.13200
C735        C  0.04743973  0.64419808  0.42289594     0.19500
C736        C  0.05685810  0.65835726  0.44301932    -0.09600
C737        C  0.06536109  0.67385729  0.42804838    -0.10500
C738        C  0.06442923  0.67520421  0.39294085     0.21100
C739        C  0.05570443  0.66101040  0.37263665    -0.12500
C740        C  0.04724061  0.64552212  0.38758560    -0.10800
C741        C  0.07034368  0.69097936  0.37880297     0.02000
C742        C  0.07341199  0.70412484  0.37025527    -0.30800
C743        C  0.03615292  0.62856902  0.43836088     0.03400
C744        C  0.02470042  0.61531973  0.44742124    -0.32500
H745        H  0.05694464  0.65746245  0.47038099     0.14500
H746        H  0.07192193  0.68477400  0.44400504     0.14300
H747        H  0.05473850  0.66192244  0.34552382     0.14100
H748        H  0.03984135  0.63463876  0.37185996     0.13200
C749        C  0.91374460  0.66809942  0.93850070     0.19500
C750        C  0.90350879  0.65123796  0.93080406    -0.09600
C751        C  0.90018702  0.64579367  0.89701525    -0.10500
C752        C  0.90708136  0.65718352  0.87064861     0.21100
C753        C  0.91736499  0.67406289  0.87830989    -0.12500
C754        C  0.92069240  0.67951587  0.91215038    -0.10800
C755        C  0.90373264  0.65163744  0.83574698     0.02000
C756        C  0.90189208  0.64825821  0.80582111    -0.30800
C757        C  0.91705708  0.67343046  0.97351192     0.03400
C758        C  0.91877426  0.67583065  0.00376449    -0.32500
H759        H  0.89809632  0.64228508  0.95096998     0.14500
H760        H  0.89226509  0.63272957  0.89146611     0.14300
H761        H  0.92281171  0.68299906  0.85812401     0.14100
H762        H  0.92865180  0.69256900  0.91773631     0.13200
C763        C  0.98555545  0.71827264  0.22240018     0.19500
C764        C  0.98406224  0.71004713  0.25231966    -0.09600
C765        C  0.99735050  0.71662311  0.27443238    -0.10500
C766        C  0.01223073  0.73148237  0.26680908     0.21100
C767        C  0.01364487  0.73987907  0.23719941    -0.12500
C768        C  0.00033744  0.73329218  0.21504953    -0.10800
C769        C  0.02626291  0.73753109  0.28834168     0.02000
C770        C  0.03801521  0.74159820  0.30559719    -0.30800
C771        C  0.97218470  0.71079932  0.19862045     0.03400
C772        C  0.96086548  0.70343065  0.17912684    -0.32500
H773        H  0.97273254  0.69839433  0.25822087     0.14500
H774        H  0.99612552  0.70995913  0.29712538     0.14300
H775        H  0.02511340  0.75132969  0.23092126     0.14100
H776        H  0.00167496  0.73973878  0.19193280     0.13200
C777        C  0.84896687  0.66654972  0.15382158     0.19500
C778        C  0.84645240  0.67802729  0.14015739    -0.09600
C779        C  0.83100465  0.67556576  0.14287607    -0.10500
C780        C  0.81802118  0.66159686  0.15919447     0.21100
C781        C  0.82054065  0.65013074  0.17283094    -0.12500
C782        C  0.83597310  0.65259228  0.17012325    -0.10800
C783        C  0.80226218  0.65924466  0.16307858     0.02000
C784        C  0.78917767  0.65728407  0.16857569    -0.30800
C785        C  0.86466173  0.66873083  0.14993498     0.03400
C786        C  0.87745001  0.66999249  0.14474799    -0.32500
H787        H  0.85639655  0.68881723  0.12732378     0.14500
H788        H  0.82919848  0.68454355  0.13237071     0.14300
H789        H  0.81059350  0.63932553  0.18562442     0.14100
H790        H  0.83775676  0.64359165  0.18060794     0.13200
C791        C  0.43671159  0.01723620  0.75495430     0.19500
C792        C  0.43774469  0.00419546  0.74371632    -0.09600
C793        C  0.43425344  0.99874013  0.70994556    -0.10500
C794        C  0.42965438  0.00626579  0.68735981     0.21100
C795        C  0.42867170  0.01933050  0.69859843    -0.12500
C796        C  0.43216178  0.02478102  0.73232702    -0.10800
C797        C  0.42624125  0.00092511  0.65246642     0.02000
C798        C  0.42388822  0.99797133  0.62251677    -0.30800
C799        C  0.43952090  0.02231653  0.79004175     0.03400
C800        C  0.44059507  0.02533807  0.82003814    -0.32500
H801        H  0.44112746  0.99818984  0.76108815     0.14500
H802        H  0.43510610  0.98866666  0.70148838     0.14300
H803        H  0.42518202  0.02527355  0.68130532     0.14100
H804        H  0.43119931  0.03478472  0.74081021     0.13200
C805        C  0.30189637  0.02711250  0.22941585     0.19500
C806        C  0.29051965  0.01365022  0.20932297    -0.09600
C807        C  0.28120378  0.99792644  0.22323208    -0.10500
C808        C  0.28324703  0.99563429  0.25727808     0.21100
C809        C  0.29414199  0.00919886  0.27773078    -0.12500
C810        C  0.30344748  0.02493157  0.26382705    -0.10800
C811        C  0.27606831  0.97924988  0.26943233     0.02000
C812        C  0.27186715  0.96540139  0.27505973    -0.30800
C813        C  0.31303898  0.04284823  0.21420034     0.03400
C814        C  0.32362191  0.05606456  0.20312211    -0.32500
H815        H  0.28932830  0.01520426  0.18263652     0.14500
H816        H  0.27298617  0.98747995  0.20707532     0.14300
H817        H  0.29598518  0.00752312  0.30394536     0.14100
H818        H  0.31230829  0.03526737  0.27950469     0.13200
C819        C  0.15234105  0.81962668  0.30857465     0.19500
C820        C  0.16168084  0.82914426  0.33651785    -0.09600
C821        C  0.17777468  0.84280813  0.33181454    -0.10500
C822        C  0.18463895  0.84702909  0.29912939     0.21100
C823        C  0.17531631  0.83750742  0.27112216    -0.12500
C824        C  0.15919049  0.82381238  0.27583639    -0.10800
C825        C  0.20117386  0.86120972  0.29440650     0.02000
C826        C  0.21490876  0.87324015  0.29020730    -0.30800
C827        C  0.13590788  0.80539562  0.31394596     0.03400
C828        C  0.12258695  0.79339868  0.32127146    -0.32500
H829        H  0.15652997  0.82597058  0.36196082     0.14500
H830        H  0.18485792  0.85007486  0.35363646     0.14300
H831        H  0.18050443  0.84066599  0.24571646     0.14100
H832        H  0.15210870  0.81649678  0.25406782     0.13200
C833        C  0.35215157  0.94548372  0.41145979     0.19500
C834        C  0.33713646  0.94316637  0.42049547    -0.09600
C835        C  0.32416749  0.93591845  0.39746961    -0.10500
C836        C  0.32606999  0.93092552  0.36515627     0.21100
C837        C  0.34097541  0.93289563  0.35629575    -0.12500
C838        C  0.35398648  0.94015785  0.37941534    -0.10800
C839        C  0.31303477  0.92491021  0.34077699     0.02000
C840        C  0.30174552  0.92135580  0.32242338    -0.30800
C841        C  0.36589994  0.95431605  0.43425381     0.03400
C842        C  0.37739834  0.96282954  0.45285376    -0.32500
H843        H  0.33557958  0.94732081  0.44505454     0.14500
H844        H  0.31276423  0.93457587  0.40457967     0.14300
H845        H  0.34266595  0.92918822  0.33134735     0.14100
H846        H  0.36556800  0.94196658  0.37203283     0.13200
C847        C  0.48987860  0.00431810  0.46421827     0.19500
C848        C  0.49544021  0.00432315  0.43122665    -0.09600
C849        C  0.51058884  0.00633062  0.42613957    -0.10500
C850        C  0.52022429  0.00835268  0.45401949     0.21100
C851        C  0.51471575  0.00848575  0.48699423    -0.12500
C852        C  0.49957551  0.00648093  0.49207772    -0.10800
C853        C  0.53533711  0.00945596  0.44880009     0.02000
C854        C  0.54736683  0.00928191  0.44366272    -0.30800
C855        C  0.47426138  0.00211571  0.46970670     0.03400
C856        C  0.46145783  0.00057756  0.47636099    -0.32500
H857        H  0.48803708  0.00267404  0.40951711     0.14500
H858        H  0.51470292  0.00612306  0.40053485     0.14300
H859        H  0.52202784  0.00995323  0.50873708     0.14100
H860        H  0.49538018  0.00650943  0.51770467     0.13200
C861        C  0.57650162  0.98317042  0.17800623     0.19500
C862        C  0.56417384  0.97699454  0.20300127    -0.09600
C863        C  0.56805045  0.98333033  0.23609202    -0.10500
C864        C  0.58425974  0.99591398  0.24436900     0.21100
C865        C  0.59660826  0.00213595  0.21935947    -0.12500
C866        C  0.59272197  0.99579532  0.18620011    -0.10800
C867        C  0.58808637  0.00184528  0.27888582     0.02000
C868        C  0.58953799  0.00474490  0.30896431    -0.30800
C869        C  0.57238289  0.97714840  0.14362442     0.03400
C870        C  0.56929785  0.97358736  0.11404259    -0.32500
H871        H  0.55157594  0.96734811  0.19688490     0.14500
H872        H  0.55841556  0.97838184  0.25527076     0.14300
H873        H  0.60918992  0.01181554  0.22548732     0.14100
H874        H  0.60232382  0.00076664  0.16695484     0.13200
C875        C  0.72428298  0.00428821  0.72642208     0.19500
C876        C  0.72285600  0.00326899  0.76189282    -0.09600
C877        C  0.71490991  0.98795813  0.77756223    -0.10500
C878        C  0.70840915  0.97363574  0.75779909     0.21100
C879        C  0.71033751  0.97471216  0.72240149    -0.12500
C880        C  0.71825034  0.99001591  0.70673166    -0.10800
C881        C  0.69785775  0.95776430  0.77295972     0.02000
C882        C  0.68687047  0.94412396  0.78125151    -0.30800
C883        C  0.73030147  0.01972217  0.71044126     0.03400
C884        C  0.73371383  0.03272430  0.69998270    -0.32500
H885        H  0.72729706  0.01422453  0.77730468     0.14500
H886        H  0.71324747  0.98723856  0.80489223     0.14300
H887        H  0.70511057  0.96367612  0.70686265     0.14100
H888        H  0.71909503  0.99064738  0.67927044     0.13200
C889        C  0.65127267  0.04893388  0.53001416     0.19500
C890        C  0.64805917  0.04522793  0.56460838    -0.09600
C891        C  0.66105851  0.05147825  0.58744175    -0.10500
C892        C  0.67737047  0.06149337  0.57585749     0.21100
C893        C  0.68058111  0.06550848  0.54138489    -0.12500
C894        C  0.66757508  0.05925305  0.51853996    -0.10800
C895        C  0.69076230  0.06689400  0.59895814     0.02000
C896        C  0.70187387  0.07059022  0.61795255    -0.30800
C897        C  0.63791662  0.04128253  0.50613263     0.03400
C898        C  0.62665905  0.03387206  0.48647269    -0.32500
H899        H  0.63552595  0.03721168  0.57380077     0.14500
H900        H  0.65839760  0.04822224  0.61398030     0.14300
H901        H  0.69312771  0.07318268  0.53206161     0.14100
H902        H  0.67024057  0.06216109  0.49185303     0.13200
C903        C  0.08952656  0.33543496  0.10016860     0.19500
C904        C  0.10271009  0.34414768  0.07734659    -0.09600
C905        C  0.10054400  0.33980493  0.04288318    -0.10500
C906        C  0.08520731  0.32670133  0.03117724     0.21100
C907        C  0.07202955  0.31801593  0.05399916    -0.12500
C908        C  0.07419229  0.32235602  0.08842421    -0.10800
C909        C  0.08287194  0.32254898  0.99561463     0.02000
C910        C  0.08115401  0.32015904  0.96542757    -0.30800
C911        C  0.09168164  0.33950840  0.13578538     0.03400
C912        C  0.09223696  0.34127844  0.16618264    -0.32500
H913        H  0.11462908  0.35424394  0.08617913     0.14500
H914        H  0.11078674  0.34666989  0.02538109     0.14300
H915        H  0.06009760  0.30793779  0.04517997     0.14100
H916        H  0.06392865  0.31550180  0.10589228     0.13200
C917        C  0.17767867  0.33034204  0.79500390     0.19500
C918        C  0.16447058  0.31496593  0.80619326    -0.09600
C919        C  0.14907210  0.31229279  0.81210709    -0.10500
C920        C  0.14685238  0.32498318  0.80675848     0.21100
C921        C  0.16003987  0.34031068  0.79539107    -0.12500
C922        C  0.17542027  0.34298148  0.78949297    -0.10800
C923        C  0.13124932  0.32255334  0.81396542     0.02000
C924        C  0.11865151  0.32132643  0.82125473    -0.30800
C925        C  0.19348591  0.33309446  0.78877532     0.03400
C926        C  0.20650229  0.33501731  0.78263413    -0.32500
H927        H  0.16609191  0.30509403  0.81041388     0.14500
H928        H  0.13895899  0.30041008  0.82101759     0.14300
H929        H  0.15845176  0.35021696  0.79130559     0.14100
H930        H  0.18554945  0.35489601  0.78073274     0.13200
C931        C  0.94015441  0.34421716  0.54615082     0.19500
C932        C  0.94176292  0.34344473  0.58119924    -0.09600
C933        C  0.93546218  0.32827668  0.59643684    -0.10500
C934        C  0.92748994  0.31388203  0.57661591     0.21100
C935        C  0.92496617  0.31456905  0.54199905    -0.12500
C936        C  0.93131928  0.32973441  0.52674437    -0.10800
C937        C  0.92435762  0.29890883  0.58996815     0.02000
C938        C  0.92356793  0.28653432  0.59593699    -0.30800
C939        C  0.95008574  0.35977308  0.52964126     0.03400
C940        C  0.96103596  0.37285264  0.51878523    -0.32500
H941        H  0.94880782  0.35462219  0.59629969     0.14500
H942        H  0.93767696  0.32788448  0.62310338     0.14300
H943        H  0.91901160  0.30349635  0.52639567     0.14100
H944        H  0.93024488  0.33023007  0.49955508     0.13200
C945        C  0.84996448  0.17005830  0.61846777     0.19500
C946        C  0.83729321  0.16849526  0.59927572    -0.09600
C947        C  0.82097562  0.15553431  0.60534017    -0.10500
C948        C  0.81728562  0.14410506  0.63063943     0.21100
C949        C  0.82999594  0.14548306  0.64934187    -0.12500
C950        C  0.84630860  0.15844494  0.64328994    -0.10800
C951        C  0.80047973  0.13123487  0.63824408     0.02000
C952        C  0.78672202  0.12027490  0.64633625    -0.30800
C953        C  0.86656037  0.18404164  0.61378441     0.03400
C954        C  0.88002031  0.19644860  0.60980082    -0.32500
H955        H  0.84000273  0.17744929  0.58006818     0.14500
H956        H  0.81124458  0.15457393  0.59071614     0.14300
H957        H  0.82726726  0.13669186  0.66895099     0.14100
H958        H  0.85601246  0.15957073  0.65831812     0.13200
C959        C  0.01055055  0.27332265  0.75084893     0.19500
C960        C  0.01412599  0.27888376  0.71732809    -0.09600
C961        C  0.00150666  0.27275431  0.69366486    -0.10500
C962        C  0.98520450  0.26101236  0.70332025     0.21100
C963        C  0.98159284  0.25538873  0.73683975    -0.12500
C964        C  0.99424386  0.26153487  0.76056551    -0.10800
C965        C  0.97221648  0.25529208  0.67907008     0.02000
C966        C  0.96160316  0.25150525  0.65868205    -0.30800
C967        C  0.02361744  0.28029343  0.77528285     0.03400
C968        C  0.03512052  0.28750471  0.79435756    -0.32500
H969        H  0.02665548  0.28809097  0.70957505     0.14500
H970        H  0.00444269  0.27729865  0.66792268     0.14300
H971        H  0.96901921  0.24640764  0.74468672     0.14100
H972        H  0.99130075  0.25723607  0.78647078     0.13200
C973        C  0.69063716  0.62680433  0.58587780     0.19500
C974        C  0.68992784  0.62494972  0.55044664    -0.09600
C975        C  0.67486171  0.61751056  0.53395294    -0.10500
C976        C  0.66049108  0.61189472  0.55290344     0.21100
C977        C  0.66109628  0.61298027  0.58842801    -0.12500
C978        C  0.67615875  0.62045282  0.60490754    -0.10800
C979        C  0.64546032  0.60679270  0.53624534     0.02000
C980        C  0.63256572  0.60380988  0.52621308    -0.30800
C981        C  0.70631519  0.63726567  0.60182502     0.03400
C982        C  0.71985999  0.64804333  0.61108881    -0.32500
H983        H  0.70109805  0.62999378  0.53548962     0.14500
H984        H  0.67452902  0.61683300  0.50648171     0.14300
H985        H  0.65003772  0.60876781  0.60327375     0.14100
H986        H  0.67660034  0.62199367  0.63225501     0.13200
C987        C  0.59050946  0.57722118  0.75650767     0.19500
C988        C  0.60208942  0.58147371  0.73043869    -0.09600
C989        C  0.59884374  0.58401995  0.69758411    -0.10500
C990        C  0.58404291  0.58238961  0.69064273     0.21100
C991        C  0.57244387  0.57806925  0.71667433    -0.12500
C992        C  0.57568535  0.57551935  0.74950626    -0.10800
C993        C  0.58085829  0.58510400  0.65675093     0.02000
C994        C  0.57941990  0.58727055  0.62737415    -0.30800
C995        C  0.59390874  0.57514140  0.79073860     0.03400
C996        C  0.59570146  0.57406951  0.82055342    -0.32500
H997        H  0.61362522  0.58291615  0.73553504     0.14500
H998        H  0.60789808  0.58732407  0.67762145     0.14300
H999        H  0.56095517  0.57673860  0.71163702     0.14100
H1000       H  0.56667264  0.57232353  0.76950868     0.13200
C1001       C  0.73183442  0.71346422  0.22698135     0.19500
C1002       C  0.72961074  0.72268443  0.20391908    -0.09600
C1003       C  0.72242958  0.73092909  0.21482136    -0.10500
C1004       C  0.71746045  0.72995294  0.24877303     0.21100
C1005       C  0.72029732  0.72127926  0.27209861    -0.12500
C1006       C  0.72750124  0.71306343  0.26121719    -0.10800
C1007       C  0.70762778  0.73603064  0.25844187     0.02000
C1008       C  0.69770587  0.73938952  0.26327042    -0.30800
C1009       C  0.73688105  0.70300557  0.21522786     0.03400
C1010       C  0.73945903  0.69267807  0.20803230    -0.32500
H1011       H  0.73279861  0.72295120  0.17735243     0.14500
H1012       H  0.72010271  0.73745550  0.19652138     0.14300
H1013       H  0.71631635  0.72028788  0.29830681     0.14100
H1014       H  0.72905705  0.70584346  0.27916856     0.13200
C1015       C  0.68477488  0.76618765  0.02309370     0.19500
C1016       C  0.68862587  0.77833819  0.04763267    -0.09600
C1017       C  0.68167025  0.77384804  0.08018752    -0.10500
C1018       C  0.67078137  0.75719709  0.08834727     0.21100
C1019       C  0.66694319  0.74504062  0.06382123    -0.12500
C1020       C  0.67389900  0.74953036  0.03126420    -0.10800
C1021       C  0.66424430  0.75269513  0.12235163     0.02000
C1022       C  0.66048602  0.74999957  0.15197085    -0.30800
C1023       C  0.69124124  0.77068425  0.98903577     0.03400
C1024       C  0.69473738  0.77301629  0.95925158    -0.32500
H1025       H  0.69692107  0.79124738  0.04156856     0.14500
H1026       H  0.68482338  0.78335412  0.09903673     0.14300
H1027       H  0.65864162  0.73213184  0.06988046     0.14100
H1028       H  0.67073807  0.74002417  0.01241413     0.13200
C1029       C  0.59573739  0.65464965  0.41182119     0.19500
C1030       C  0.59469058  0.66805006  0.41943299    -0.09600
C1031       C  0.60041236  0.68075293  0.39600332    -0.10500
C1032       C  0.60718609  0.68010724  0.36483641     0.21100
C1033       C  0.60795351  0.66655934  0.35703768    -0.12500
C1034       C  0.60224345  0.65388274  0.38041876    -0.10800
C1035       C  0.61447070  0.69380244  0.34187665     0.02000
C1036       C  0.62214763  0.70544146  0.32324608    -0.30800
C1037       C  0.59104691  0.64211434  0.43667890     0.03400
C1038       C  0.58835330  0.63159595  0.45639261    -0.32500
H1039       H  0.58977618  0.66884027  0.44368646     0.14500
H1040       H  0.59988251  0.69122726  0.40248337     0.14300
H1041       H  0.61329820  0.66597169  0.33320213     0.14100
H1042       H  0.60321912  0.64364806  0.37429337     0.13200
C1043       C  0.34597416  0.39785754  0.38616836     0.19500
C1044       C  0.34506079  0.39429030  0.35132610    -0.09600
C1045       C  0.32999699  0.38653704  0.33475392    -0.10500
C1046       C  0.31581853  0.38238607  0.35295742     0.21100
C1047       C  0.31687952  0.38666890  0.38744199    -0.12500
C1048       C  0.33194706  0.39438509  0.40405262    -0.10800
C1049       C  0.29993412  0.37146365  0.33811629     0.02000
C1050       C  0.28631805  0.36017304  0.33046617    -0.30800
C1051       C  0.36085682  0.40322076  0.40378812     0.03400
C1052       C  0.37351384  0.40587487  0.41452485    -0.32500
H1053       H  0.35582178  0.39677651  0.33737358     0.14500
H1054       H  0.32926720  0.38303895  0.30823651     0.14300
H1055       H  0.30592499  0.38326891  0.40185588     0.14100
H1056       H  0.33249680  0.39693739  0.43107310     0.13200
C1057       C  0.51697622  0.51853748  0.47099474     0.19500
C1058       C  0.50908011  0.50816589  0.49875557    -0.09600
C1059       C  0.49520993  0.49222289  0.49370872    -0.10500
C1060       C  0.48922073  0.48661588  0.46088280     0.21100
C1061       C  0.49711193  0.49700289  0.43312495    -0.12500
C1062       C  0.51098675  0.51295141  0.43817383    -0.10800
C1063       C  0.47495262  0.47024267  0.45563019     0.02000
C1064       C  0.46290874  0.45667091  0.45030988    -0.30800
C1065       C  0.53118929  0.53489780  0.47638020     0.03400
C1066       C  0.54301770  0.54843034  0.48280763    -0.32500
H1067       H  0.51363968  0.51240677  0.52424391     0.14500
H1068       H  0.48916875  0.48428809  0.51532958     0.14300
H1069       H  0.49253880  0.49277228  0.40763673     0.14100
H1070       H  0.51702228  0.52090488  0.41657537     0.13200
C1071       C  0.41689851  0.41152359  0.24719364     0.19500
C1072       C  0.41685568  0.40091327  0.22281919    -0.09600
C1073       C  0.41446080  0.40242684  0.18857539    -0.10500
C1074       C  0.41206007  0.41453961  0.17847932     0.21100
C1075       C  0.41208367  0.42514654  0.20285545    -0.12500
C1076       C  0.41447787  0.42363051  0.23711567    -0.10800
C1077       C  0.40986231  0.41615425  0.14304802     0.02000
C1078       C  0.40864549  0.41691848  0.11282530    -0.30800
C1079       C  0.41924954  0.40996184  0.28256187     0.03400
C1080       C  0.42071402  0.40928937  0.31271510    -0.32500
H1081       H  0.41867617  0.39148349  0.23027262     0.14500
H1082       H  0.41451404  0.39417998  0.16996017     0.14300
H1083       H  0.41028764  0.43458833  0.19538918     0.14100
H1084       H  0.41444752  0.43188868  0.25573057     0.13200
C1085       C  0.27681965  0.26049795  0.71134022     0.19500
C1086       C  0.27649459  0.26405262  0.74585970    -0.09600
C1087       C  0.26761520  0.27051859  0.75696069    -0.10500
C1088       C  0.25901591  0.27343304  0.73358857     0.21100
C1089       C  0.25856487  0.26899985  0.69937393    -0.12500
C1090       C  0.26746947  0.26254064  0.68825129    -0.10800
C1091       C  0.25314693  0.28344271  0.74346154     0.02000
C1092       C  0.25080614  0.29405235  0.74932376    -0.30800
C1093       C  0.28836049  0.25683821  0.69939982     0.03400
C1094       C  0.29968491  0.25574760  0.69217175    -0.32500
H1095       H  0.28380257  0.26265395  0.76388127     0.14500
H1096       H  0.26822720  0.27411149  0.78337189     0.14300
H1097       H  0.25212151  0.27140587  0.68102235     0.14100
H1098       H  0.26774519  0.25995877  0.66147527     0.13200
C1099       C  0.32011680  0.23948865  0.92706150     0.19500
C1100       C  0.33086048  0.23521994  0.91559316    -0.09600
C1101       C  0.33712364  0.23882249  0.88243214    -0.10500
C1102       C  0.33270981  0.24677383  0.86060989     0.21100
C1103       C  0.32180572  0.25086964  0.87194502    -0.12500
C1104       C  0.31554768  0.24727500  0.90513519    -0.10800
C1105       C  0.33895749  0.25036021  0.82631194     0.02000
C1106       C  0.34267661  0.25274779  0.79664830    -0.30800
C1107       C  0.31487602  0.23695525  0.96202871     0.03400
C1108       C  0.31271403  0.23596412  0.99231849    -0.32500
H1109       H  0.33457992  0.22931432  0.93245945     0.14500
H1110       H  0.34544880  0.23550021  0.87389254     0.14300
H1111       H  0.31821836  0.25692246  0.85517924     0.14100
H1112       H  0.30736196  0.25075094  0.91380518     0.13200
C1113       C  0.39172889  0.32370725  0.58139018     0.19500
C1114       C  0.39365581  0.32100187  0.54705823    -0.09600
C1115       C  0.39987022  0.33383068  0.52375496    -0.10500
C1116       C  0.40420842  0.34946780  0.53461738     0.21100
C1117       C  0.40259305  0.35224664  0.56905650    -0.12500
C1118       C  0.39638139  0.33942834  0.59233799    -0.10800
C1119       C  0.40941323  0.36239698  0.51033355     0.02000
C1120       C  0.41279661  0.37316311  0.49058471    -0.30800
C1121       C  0.38404521  0.31017683  0.60491304     0.03400
C1122       C  0.37655857  0.29866837  0.62399002    -0.32500
H1123       H  0.39003261  0.30889787  0.53818004     0.14500
H1124       H  0.40097299  0.33147115  0.49721291     0.14300
H1125       H  0.40581663  0.36423972  0.57780255     0.14100
H1126       H  0.39488257  0.34168959  0.61872698     0.13200
C1127       C  0.40820014  0.06042390  0.54100608     0.19500
C1128       C  0.39940305  0.06392967  0.51952365    -0.09600
C1129       C  0.39104663  0.07058078  0.53295810    -0.10500
C1130       C  0.39142049  0.07369620  0.56792224     0.21100
C1131       C  0.40082506  0.07089001  0.58917997    -0.12500
C1132       C  0.40921536  0.06426406  0.57572311    -0.10800
C1133       C  0.38067779  0.07797047  0.58200608     0.02000
C1134       C  0.36997733  0.07987792  0.59014909    -0.30800
C1135       C  0.41402049  0.05069193  0.52863407     0.03400
C1136       C  0.41667926  0.04041920  0.52139426    -0.32500
H1137       H  0.39834602  0.06079201  0.49274465     0.14500
H1138       H  0.38368769  0.07257885  0.51635589     0.14300
H1139       H  0.40107808  0.07312661  0.61628471     0.14100
H1140       H  0.41580854  0.06138418  0.59261207     0.13200
C1141       C  0.34254445  0.09368507  0.41919773     0.19500
C1142       C  0.35233995  0.08827442  0.40752494    -0.09600
C1143       C  0.35987241  0.09289311  0.37546769    -0.10500
C1144       C  0.35772434  0.10304137  0.35501839     0.21100
C1145       C  0.34786744  0.10837919  0.36664577    -0.12500
C1146       C  0.34033665  0.10376047  0.39867575    -0.10800
C1147       C  0.36479169  0.10725515  0.32136554     0.02000
C1148       C  0.36863049  0.10970759  0.29174840    -0.30800
C1149       C  0.33555653  0.08963898  0.45292210     0.03400
C1150       C  0.33141691  0.08719343  0.48238686    -0.32500
H1151       H  0.35422892  0.08056673  0.42328503     0.14500
H1152       H  0.36730440  0.08853526  0.36662426     0.14300
H1153       H  0.34596381  0.11607993  0.35088616     0.14100
H1154       H  0.33289184  0.10810945  0.40749591     0.13200
C1155       C  0.34372467  0.18813855  0.64529232     0.19500
C1156       C  0.35379961  0.18641381  0.62247492    -0.09600
C1157       C  0.35090033  0.17089420  0.61644194    -0.10500
C1158       C  0.33791721  0.15706591  0.63320000     0.21100
C1159       C  0.32797909  0.15884288  0.65625401    -0.12500
C1160       C  0.33087595  0.17433286  0.66228202    -0.10800
C1161       C  0.33468324  0.14104400  0.62652539     0.02000
C1162       C  0.33225207  0.12777113  0.62046280    -0.30800
C1163       C  0.34617432  0.20390090  0.65091403     0.03400
C1164       C  0.34698062  0.21642830  0.65687634    -0.32500
H1165       H  0.36377218  0.19700311  0.60919374     0.14500
H1166       H  0.35867948  0.16965562  0.59859628     0.14300
H1167       H  0.31792862  0.14824405  0.66937859     0.14100
H1168       H  0.32301019  0.17552715  0.67997529     0.13200
C1169       C  0.35310147  0.96918043  0.90336428     0.19500
C1170       C  0.35056827  0.96631959  0.86834835    -0.09600
C1171       C  0.33466705  0.95801470  0.85542570    -0.10500
C1172       C  0.32129666  0.95254354  0.87754816     0.21100
C1173       C  0.32378414  0.95487715  0.91265831    -0.12500
C1174       C  0.33968231  0.96321028  0.92557066    -0.10800
C1175       C  0.30525583  0.94614780  0.86446576     0.02000
C1176       C  0.29169575  0.94229620  0.85728238    -0.30800
C1177       C  0.36953570  0.97952884  0.91587107     0.03400
C1178       C  0.38367824  0.98942480  0.92302721    -0.32500
H1179       H  0.36091700  0.97102133  0.85099328     0.14500
H1180       H  0.33286493  0.95639580  0.82823068     0.14300
H1181       H  0.31349964  0.95080633  0.92991404     0.14100
H1182       H  0.34154598  0.96548766  0.95265117     0.13200
C1183       C  0.27403996  0.01845978  0.69632287     0.19500
C1184       C  0.27483465  0.02207262  0.73112622    -0.09600
C1185       C  0.26728866  0.00934375  0.75475727    -0.10500
C1186       C  0.25887514  0.99290376  0.74375295     0.21100
C1187       C  0.25778836  0.98927164  0.70891076    -0.12500
C1188       C  0.26534262  0.00200677  0.68526969    -0.10800
C1189       C  0.25251261  0.97987472  0.76817045     0.02000
C1190       C  0.24859535  0.96904740  0.78810208    -0.30800
C1191       C  0.28307517  0.03163624  0.67232210     0.03400
C1192       C  0.29177798  0.04290240  0.65336591    -0.32500
H1193       H  0.28161852  0.03473270  0.74003540     0.14500
H1194       H  0.26835957  0.01233279  0.78160861     0.14300
H1195       H  0.25145564  0.97662452  0.70007602     0.14100
H1196       H  0.26473064  0.99903553  0.65847141     0.13200
C1197       C  0.25225274  0.92225517  0.09449749     0.19500
C1198       C  0.25253137  0.91314086  0.06701151    -0.09600
C1199       C  0.24943056  0.91589293  0.03423824    -0.10500
C1200       C  0.24600791  0.92774533  0.02875492     0.21100
C1201       C  0.24561586  0.93678573  0.05626387    -0.12500
C1202       C  0.24871496  0.93402947  0.08905961    -0.10800
C1203       C  0.24329078  0.93074090  0.99472317     0.02000
C1204       C  0.24179352  0.93222563  0.96498181    -0.30800
C1205       C  0.25555035  0.91958717  0.12831037     0.03400
C1206       C  0.25782759  0.91803340  0.15753250    -0.32500
H1207       H  0.25520206  0.90398391  0.07088569     0.14500
H1208       H  0.24979382  0.90884323  0.01312968     0.14300
H1209       H  0.24301388  0.94599091  0.05234943     0.14100
H1210       H  0.24842031  0.94112291  0.11015931     0.13200
C1211       C  0.93336577  0.61081981  0.08369616     0.19500
C1212       C  0.93275807  0.60681713  0.04913900    -0.09600
C1213       C  0.94159842  0.60047880  0.03676711    -0.10500
C1214       C  0.95104795  0.59814576  0.05896642     0.21100
C1215       C  0.95103416  0.60143913  0.09372375    -0.12500
C1216       C  0.94223205  0.60778685  0.10605990    -0.10800
C1217       C  0.96215090  0.59409659  0.04613918     0.02000
C1218       C  0.97301534  0.59227502  0.03918180    -0.30800
C1219       C  0.92695006  0.62015226  0.09522425     0.03400
C1220       C  0.92381087  0.63006489  0.10263672    -0.32500
H1221       H  0.92609677  0.60931248  0.03156336     0.14500
H1222       H  0.94162648  0.59807680  0.00981788     0.14300
H1223       H  0.95841454  0.59979163  0.11104225     0.14100
H1224       H  0.94296724  0.61104304  0.13272634     0.13200
C1225       C  0.98964011  0.56967991  0.27831705     0.19500
C1226       C  0.99561319  0.58521498  0.26498701    -0.09600
C1227       C  0.00184274  0.58895672  0.23179481    -0.10500
C1228       C  0.00220676  0.57719991  0.21177744     0.21100
C1229       C  0.99626206  0.56166667  0.22511022    -0.12500
C1230       C  0.99003034  0.55792285  0.25833333    -0.10800
C1231       C  0.00798785  0.58081777  0.17713217     0.02000
C1232       C  0.01153669  0.58326876  0.14738319    -0.30800
C1233       C  0.98380643  0.56615329  0.31294175     0.03400
C1234       C  0.98040616  0.56441760  0.34281450    -0.32500
H1235       H  0.99549436  0.59445190  0.28029334     0.14500
H1236       H  0.00630248  0.60096312  0.22171309     0.14300
H1237       H  0.99638474  0.55243760  0.20978591     0.14100
H1238       H  0.98556970  0.54592034  0.26843415     0.13200
C1239       C  0.98706836  0.70519006  0.72588845     0.19500
C1240       C  0.00080163  0.71293978  0.70424913    -0.09600
C1241       C  0.01654724  0.72060048  0.71767965    -0.10500
C1242       C  0.01857183  0.72047428  0.75274670     0.21100
C1243       C  0.00488486  0.71330292  0.77451511    -0.12500
C1244       C  0.98913579  0.70567147  0.76108758    -0.10800
C1245       C  0.03443309  0.72590220  0.76551740     0.02000
C1246       C  0.04777246  0.72901665  0.77233885    -0.30800
C1247       C  0.97082657  0.69537223  0.71213225     0.03400
C1248       C  0.95681597  0.68564061  0.70377071    -0.32500
H1249       H  0.99930947  0.71251521  0.67698736     0.14500
H1250       H  0.02707147  0.72599442  0.70064797     0.14300
H1251       H  0.00632684  0.71301581  0.80163872     0.14100
H1252       H  0.97855711  0.69959459  0.77798195     0.13200
C1253       C  0.17977196  0.85214148  0.82000579     0.19500
C1254       C  0.16290852  0.84491912  0.82507142    -0.09600
C1255       C  0.15180539  0.82789645  0.82110409    -0.10500
C1256       C  0.15753870  0.81804804  0.81216211     0.21100
C1257       C  0.17438227  0.82528532  0.80695589    -0.12500
C1258       C  0.18547244  0.84228893  0.81091185    -0.10800
C1259       C  0.14610843  0.80057634  0.80777265     0.02000
C1260       C  0.13599598  0.78611993  0.80300658    -0.30800
C1261       C  0.19135334  0.86956950  0.82488943     0.03400
C1262       C  0.20190169  0.88391025  0.82976378    -0.32500
H1263       H  0.15837116  0.85241426  0.83218923     0.14500
H1264       H  0.13878167  0.82241883  0.82503109     0.14300
H1265       H  0.17893050  0.81779429  0.79988601     0.14100
H1266       H  0.19849666  0.84774866  0.80701833     0.13200
C1267       C  0.06873293  0.65353241  0.93449290     0.19500
C1268       C  0.08071504  0.66995948  0.94312168    -0.09600
C1269       C  0.08768583  0.68202150  0.91800254    -0.10500
C1270       C  0.08270993  0.67771942  0.88415111     0.21100
C1271       C  0.07100274  0.66123616  0.87546228    -0.12500
C1272       C  0.06405211  0.64919400  0.90053355    -0.10800
C1273       C  0.08845395  0.69033668  0.85898022     0.02000
C1274       C  0.09180753  0.70095144  0.83892053    -0.30800
C1275       C  0.06039381  0.64121801  0.96038541     0.03400
C1276       C  0.05185825  0.63020288  0.97993893    -0.32500
H1277       H  0.08436692  0.67349896  0.96930554     0.14500
H1278       H  0.09660936  0.69474619  0.92510466     0.14300
H1279       H  0.06691990  0.65776095  0.84947504     0.14100
H1280       H  0.05472091  0.63655895  0.89356764     0.13200
C1281       C  0.09201270  0.75188098  0.53423231     0.19500
C1282       C  0.09641976  0.76369062  0.55990535    -0.09600
C1283       C  0.09916589  0.76074425  0.59282906    -0.10500
C1284       C  0.09755527  0.74599340  0.60024320     0.21100
C1285       C  0.09338781  0.73428510  0.57445560    -0.12500
C1286       C  0.09064848  0.73723589  0.54151951    -0.10800
C1287       C  0.09926175  0.74259270  0.63470606     0.02000
C1288       C  0.09973592  0.74048743  0.66458740    -0.30800
C1289       C  0.08883021  0.75466264  0.50041909     0.03400
C1290       C  0.08632226  0.75594818  0.47119785    -0.32500
H1291       H  0.09756838  0.77507321  0.55456364     0.14500
H1292       H  0.10230608  0.76985613  0.61261262     0.14300
H1293       H  0.09203024  0.72281176  0.57990010     0.14100
H1294       H  0.08730483  0.72803482  0.52182529     0.13200
C1295       C  0.06274595  0.38072511  0.88415561     0.19500
C1296       C  0.06204282  0.39114823  0.86164184    -0.09600
C1297       C  0.05388847  0.39859681  0.87126584    -0.10500
C1298       C  0.04641991  0.39561661  0.90339065     0.21100
C1299       C  0.04762187  0.38564958  0.92630530    -0.12500
C1300       C  0.05578160  0.37822427  0.91670592    -0.10800
C1301       C  0.03603424  0.40125195  0.91136541     0.02000
C1302       C  0.02597002  0.40445403  0.91583864    -0.30800
C1303       C  0.06905539  0.37124881  0.87305588     0.03400
C1304       C  0.07237128  0.36144914  0.86592459    -0.32500
H1305       H  0.06725732  0.39303298  0.83631279     0.14500
H1306       H  0.05287016  0.40615684  0.85324705     0.14300
H1307       H  0.04173516  0.38312676  0.95104885     0.14100
H1308       H  0.05612550  0.37005267  0.93417757     0.13200
C1309       C  0.00576350  0.51657611  0.98618844     0.19500
C1310       C  0.98953651  0.50265577  0.98648519    -0.09600
C1311       C  0.98633087  0.48703008  0.98041898    -0.10500
C1312       C  0.99933430  0.48525194  0.97407438     0.21100
C1313       C  0.01556570  0.49916381  0.97387918    -0.12500
C1314       C  0.01877255  0.51479393  0.97994944    -0.10800
C1315       C  0.99599334  0.46924223  0.96664372     0.02000
C1316       C  0.99333119  0.45603470  0.95875347    -0.30800
C1317       C  0.00904343  0.53259982  0.99315260     0.03400
C1318       C  0.01130297  0.54568628  0.00059549    -0.32500
H1319       H  0.97938559  0.50388364  0.99142205     0.14500
H1320       H  0.97373301  0.47636156  0.98051619     0.14300
H1321       H  0.02571126  0.49793313  0.96888734     0.14100
H1322       H  0.03136774  0.52546658  0.97980179     0.13200
C1323       C  0.99333313  0.42290427  0.74589873     0.19500
C1324       C  0.00875464  0.43647532  0.73562693    -0.09600
C1325       C  0.01359109  0.43823920  0.70146200    -0.10500
C1326       C  0.00302339  0.42640870  0.67744552     0.21100
C1327       C  0.98751953  0.41297561  0.68767688    -0.12500
C1328       C  0.98269035  0.41121357  0.72179447    -0.10800
C1329       C  0.00788539  0.42789215  0.64226062     0.02000
C1330       C  0.01013967  0.42781573  0.61207382    -0.30800
C1331       C  0.98894021  0.42041664  0.78139041     0.03400
C1332       C  0.98656038  0.41822962  0.81152529    -0.32500
H1333       H  0.01713389  0.44554392  0.75410162     0.14500
H1334       H  0.02557686  0.44869435  0.69385997     0.14300
H1335       H  0.97921839  0.40376776  0.66929737     0.14100
H1336       H  0.97079467  0.40062586  0.72944306     0.13200
C1337       C  0.00822827  0.27325666  0.23406153     0.19500
C1338       C  0.99375970  0.26616791  0.25344138    -0.09600
C1339       C  0.97874579  0.25977690  0.23740994    -0.10500
C1340       C  0.97819572  0.26051189  0.20201298     0.21100
C1341       C  0.99254485  0.26682516  0.18254478    -0.12500
C1342       C  0.00754928  0.27317880  0.19856685    -0.10800
C1343       C  0.96349986  0.25715576  0.18656035     0.02000
C1344       C  0.95144198  0.25637897  0.17767824    -0.30800
C1345       C  0.02389529  0.28293139  0.25029914     0.03400
C1346       C  0.03731566  0.29343256  0.26059441    -0.32500
H1347       H  0.99419956  0.26640328  0.28090551     0.14500
H1348       H  0.96772687  0.25511376  0.25271705     0.14300
H1349       H  0.99227788  0.26765557  0.15522789     0.14100
H1350       H  0.01872783  0.27887272  0.18340854     0.13200
C1351       C  0.92291671  0.31876262  0.06704195     0.19500
C1352       C  0.92319025  0.31553063  0.03229463    -0.09600
C1353       C  0.92902147  0.32818528  0.00874935    -0.10500
C1354       C  0.93459819  0.34415499  0.01980349     0.21100
C1355       C  0.93394686  0.34729083  0.05446449    -0.12500
C1356       C  0.92812559  0.33464144  0.07800695    -0.10800
C1357       C  0.94230026  0.35758816  0.99616454     0.02000
C1358       C  0.95032480  0.36929112  0.97783126    -0.30800
C1359       C  0.91825944  0.30605272  0.09145032     0.03400
C1360       C  0.91525630  0.29544016  0.11122001    -0.32500
H1361       H  0.91927971  0.30333155  0.02349434     0.14500
H1362       H  0.92958807  0.32561596  0.98207879     0.14300
H1363       H  0.93835325  0.35960880  0.06338063     0.14100
H1364       H  0.92806423  0.33733344  0.10478921     0.13200
C1365       C  0.92206885  0.24997480  0.41603215     0.19500
C1366       C  0.92682010  0.24463694  0.38778058    -0.09600
C1367       C  0.92347673  0.24716393  0.35500089    -0.10500
C1368       C  0.91535646  0.25502169  0.35030233     0.21100
C1369       C  0.91057187  0.26031232  0.37855384    -0.12500
C1370       C  0.91391559  0.25779084  0.41130913    -0.10800
C1371       C  0.91193072  0.25749867  0.31643287     0.02000
C1372       C  0.90968028  0.25865486  0.28694918    -0.30800
C1373       C  0.92526804  0.24735743  0.44999709     0.03400
C1374       C  0.92666971  0.24567924  0.47970198    -0.32500
H1375       H  0.93306802  0.23852391  0.39107470     0.14500
H1376       H  0.92720126  0.24298240  0.33332916     0.14300
H1377       H  0.90425494  0.26636058  0.37527615     0.14100
H1378       H  0.91012423  0.26191301  0.43297346     0.13200
C1379       C  0.63928300  0.04267512  0.04210936     0.19500
C1380       C  0.63917181  0.04046362  0.07718292    -0.09600
C1381       C  0.65396638  0.04768066  0.09461432    -0.10500
C1382       C  0.66891141  0.05716965  0.07703636     0.21100
C1383       C  0.66903062  0.06003771  0.04228675    -0.12500
C1384       C  0.65422548  0.05277106  0.02481721    -0.10800
C1385       C  0.68398918  0.06197926  0.09308764     0.02000
C1386       C  0.69689424  0.06452573  0.10178103    -0.30800
C1387       C  0.62418173  0.03282855  0.02374761     0.03400
C1388       C  0.61098236  0.02218664  0.01260859    -0.32500
H1389       H  0.62767731  0.03251228  0.09070434     0.14500
H1390       H  0.65374568  0.04520792  0.12137863     0.14300
H1391       H  0.68054557  0.06719302  0.02840822     0.14100
H1392       H  0.65445867  0.05440268  0.99763980     0.13200
C1393       C  0.83666687  0.18253926  0.14604255     0.19500
C1394       C  0.83182345  0.17542538  0.11362025    -0.09600
C1395       C  0.81921212  0.15876801  0.11002446    -0.10500
C1396       C  0.81144689  0.14916421  0.13883249     0.21100
C1397       C  0.81626036  0.15628777  0.17125555    -0.12500
C1398       C  0.82887344  0.17294820  0.17485085    -0.10800
C1399       C  0.79832408  0.13210840  0.13495421     0.02000
C1400       C  0.78692485  0.11809947  0.13023578    -0.30800
C1401       C  0.85014328  0.19944953  0.14987774     0.03400
C1402       C  0.86217413  0.21315336  0.15409310    -0.32500
H1403       H  0.83785854  0.18271121  0.09119699     0.14500
H1404       H  0.81553305  0.15337528  0.08483455     0.14300
H1405       H  0.81029434  0.14897605  0.19368040     0.14100
H1406       H  0.83262438  0.17831966  0.20004274     0.13200
C1407       C  0.74572752  0.07657864  0.92696579     0.19500
C1408       C  0.73486645  0.06334737  0.90570675    -0.09600
C1409       C  0.73361572  0.06606961  0.87154972    -0.10500
C1410       C  0.74316958  0.08203961  0.85852901     0.21100
C1411       C  0.75409186  0.09525191  0.87974327    -0.12500
C1412       C  0.75534412  0.09253046  0.91389560    -0.10800
C1413       C  0.74217749  0.08469077  0.82312952     0.02000
C1414       C  0.74165532  0.08580635  0.79284243    -0.30800
C1415       C  0.74652885  0.07396755  0.96247920     0.03400
C1416       C  0.74677943  0.07256826  0.99274446    -0.32500
H1417       H  0.72731920  0.05097468  0.91555741     0.14500
H1418       H  0.72522519  0.05573976  0.85530235     0.14300
H1419       H  0.76163323  0.10762820  0.86989432     0.14100
H1420       H  0.76372927  0.10286133  0.93014533     0.13200
C1421       C  0.59853239  0.91553179  0.38669735     0.19500
C1422       C  0.59261079  0.92073356  0.36155731    -0.09600
C1423       C  0.58518368  0.92895507  0.37069160    -0.10500
C1424       C  0.58365711  0.93199126  0.40499783     0.21100
C1425       C  0.58851021  0.92574486  0.43017595    -0.12500
C1426       C  0.59593527  0.91751155  0.42103441    -0.10800
C1427       C  0.57993766  0.94384691  0.41388493     0.02000
C1428       C  0.57952669  0.95575149  0.41901446    -0.30800
C1429       C  0.60987648  0.91120414  0.37751781     0.03400
C1430       C  0.62155186  0.91056195  0.37129307    -0.32500
H1431       H  0.59474794  0.91945793  0.33495746     0.14500
H1432       H  0.58165748  0.93390279  0.35100129     0.14300
H1433       H  0.58756476  0.92818764  0.45675750     0.14100
H1434       H  0.60065578  0.91371909  0.44068752     0.13200
C1435       C  0.64912822  0.90320931  0.60416190     0.19500
C1436       C  0.65581709  0.91899117  0.59131923    -0.09600
C1437       C  0.66219393  0.92274431  0.55821801    -0.10500
C1438       C  0.66198708  0.91075616  0.53786846     0.21100
C1439       C  0.65530319  0.89498517  0.55072615    -0.12500
C1440       C  0.64892546  0.89123204  0.58380542    -0.10800
C1441       C  0.66768621  0.91424059  0.50317699     0.02000
C1442       C  0.67064558  0.91596707  0.47313812    -0.30800
C1443       C  0.64325880  0.89960605  0.63873772     0.03400
C1444       C  0.63988730  0.89759049  0.66859891    -0.32500
H1445       H  0.65614822  0.92838820  0.60691575     0.14500
H1446       H  0.66719092  0.93493659  0.54845139     0.14300
H1447       H  0.65493855  0.88557271  0.53511191     0.14100
H1448       H  0.64389400  0.87902617  0.59353312     0.13200
C1449       C  0.71470314  0.98287146  0.25577053     0.19500
C1450       C  0.72092625  0.99897709  0.26697475    -0.09600
C1451       C  0.72773603  0.01184393  0.24368816    -0.10500
C1452       C  0.72838198  0.00871525  0.20901976     0.21100
C1453       C  0.72248567  0.99267682  0.19788327    -0.12500
C1454       C  0.71567987  0.97980436  0.22118504    -0.10800
C1455       C  0.73404146  0.02175274  0.18486327     0.02000
C1456       C  0.73764547  0.03276120  0.16567019    -0.30800
C1457       C  0.70653108  0.96939260  0.27936683     0.03400
C1458       C  0.69889014  0.95791665  0.29846110    -0.32500
H1459       H  0.72020108  0.00153150  0.29358684     0.14500
H1460       H  0.73215594  0.02416058  0.25261403     0.14300
H1461       H  0.72281496  0.99006089  0.17114705     0.14100
H1462       H  0.71086456  0.96741121  0.21214210     0.13200
C1463       C  0.66777100  0.81986313  0.30236738     0.19500
C1464       C  0.66244912  0.82616071  0.27829488    -0.09600
C1465       C  0.66418373  0.84113765  0.28444752    -0.10500
C1466       C  0.67128248  0.84989941  0.31467788     0.21100
C1467       C  0.67687465  0.84374779  0.33848148    -0.12500
C1468       C  0.67513769  0.82876587  0.33232931    -0.10800
C1469       C  0.67209801  0.86475880  0.32202806     0.02000
C1470       C  0.67203335  0.87670018  0.32939801    -0.30800
C1471       C  0.66536932  0.80413684  0.29654164     0.03400
C1472       C  0.66323063  0.79096002  0.29083789    -0.32500
H1473       H  0.65676862  0.81939237  0.25500111     0.14500
H1474       H  0.65977489  0.84575245  0.26591626     0.14300
H1475       H  0.68234082  0.85040219  0.36199181     0.14100
H1476       H  0.67932963  0.82403128  0.35107549     0.13200
loop_ 
_geom_bond_atom_site_label_1 
_geom_bond_atom_site_label_2 
_geom_bond_distance 
_geom_bond_site_symmetry_2 
_ccdc_geom_bond_type 
O1            C4   1.263       .  A
O1           Cd6   2.458       .  S
C2           O11   1.263       .  A
C2            O7   1.264       .  A
C2         C1430   1.432       .  S
O3            C9   1.266       .  A
O3           Cd6   2.493       .  S
C4           O12   1.264       .  A
C4         C1470   1.434       .  S
C5           O10   1.265       .  A
C5            O8   1.264       .  A
C5         C1458   1.442       .  S
Cd6          O13   2.440       .  S
Cd6          O12   2.470       .  S
Cd6          O11   2.438       .  S
Cd6           O7   2.478       .  S
Cd6          O10   2.491       .  S
Cd6           O8   2.475       .  S
C9           O13   1.261       .  A
C9         C1442   1.434       .  S
O14          C17   1.262       .  A
O14         Cd19   2.449       .  S
C15          O24   1.263       .  A
C15          O20   1.264       .  A
C15        C1386   1.429       .  S
O16          C22   1.266       .  A
O16         Cd19   2.490       .  S
C17          O25   1.264       .  A
C17        C1400   1.432       .  S
C18          O23   1.265       .  A
C18          O21   1.263       .  A
C18        C1456   1.439       .  S
Cd19         O26   2.444       .  S
Cd19         O25   2.469       .  S
Cd19         O24   2.434       .  S
Cd19         O20   2.466       .  S
Cd19         O23   2.490       .  S
Cd19         O21   2.460       .  S
C22          O26   1.261       .  A
C22        C1416   1.435   1_554  S
O27          C30   1.263       .  A
O27         Cd32   2.471       .  S
C28          O37   1.266       .  A
C28          O33   1.263       .  A
C28        C1402   1.431       .  S
O29          C35   1.266       .  A
O29         Cd32   2.494       .  S
C30          O38   1.262       .  A
C30        C1344   1.429       .  S
C31          O36   1.265       .  A
C31          O34   1.263       .  A
C31        C1360   1.439       .  S
Cd32         O39   2.440       .  S
Cd32         O38   2.441       .  S
Cd32         O37   2.466       .  S
Cd32         O33   2.437       .  S
Cd32         O36   2.488       .  S
Cd32         O34   2.467       .  S
C35          O39   1.261       .  A
C35        C1372   1.436       .  S
O40          C43   1.263   1_455  A
O40         Cd45   2.461   1_455  S
C41          O50   1.263   1_455  A
C41          O46   1.264       .  A
C41        C1302   1.431       .  S
O42          C48   1.265       .  A
O42         Cd45   2.498       .  S
C43          O51   1.264       .  A
C43        C1316   1.434       .  S
C44          O49   1.267       .  A
C44          O47   1.262       .  A
C44        C1332   1.435       .  S
Cd45         O52   2.458       .  S
Cd45         O51   2.465       .  S
Cd45         O50   2.440       .  S
Cd45         O46   2.468   1_655  S
Cd45         O49   2.490       .  S
Cd45         O47   2.439       .  S
C48          O52   1.262       .  A
C48        C1358   1.439       .  S
O53          C56   1.262       .  A
O53         Cd58   2.440       .  S
C54          O63   1.264       .  A
C54          O59   1.263       .  A
C54        C1246   1.428       .  S
O55          C61   1.267       .  A
O55         Cd58   2.498       .  S
C56          O64   1.265       .  A
C56        C1260   1.432       .  S
C57          O62   1.266       .  A
C57          O60   1.262       .  A
C57        C1274   1.438       .  S
Cd58         O65   2.434       .  S
Cd58         O64   2.470       .  S
Cd58         O63   2.442       .  S
Cd58         O59   2.460       .  S
Cd58         O62   2.500       .  S
Cd58         O60   2.452       .  S
C61          O65   1.261       .  A
C61        C1288   1.435       .  S
O66          C69   1.263       .  A
O66         Cd71   2.456       .  S
C67          O76   1.263   1_655  A
C67          O72   1.264       .  A
C67        C1218   1.430       .  S
O68          C74   1.266       .  A
O68         Cd71   2.494       .  S
C69          O77   1.265       .  A
C69        C1318   1.434       .  S
C70          O75   1.266   1_556  A
C70          O73   1.263       .  A
C70        C1276   1.438       .  S
Cd71         O78   2.441       .  S
Cd71         O77   2.469       .  S
Cd71         O76   2.440       .  S
Cd71         O72   2.467   1_455  S
Cd71         O75   2.495       .  S
Cd71         O73   2.449   1_554  S
C74          O78   1.261       .  A
C74        C1232   1.436       .  S
O79          C82   1.263       .  A
O79         Cd84   2.447       .  S
C80          O89   1.263       .  A
C80          O85   1.265       .  A
C80        C1176   1.428       .  S
O81          C87   1.266       .  A
O81         Cd84   2.496       .  S
C82          O90   1.265       .  A
C82        C1262   1.434       .  S
C83          O88   1.267       .  A
C83          O86   1.261       .  A
C83        C1204   1.435       .  S
Cd84         O91   2.451       .  S
Cd84         O90   2.475       .  S
Cd84         O89   2.426       .  S
Cd84         O85   2.467       .  S
Cd84         O88   2.497       .  S
Cd84         O86   2.429       .  S
C87          O91   1.262       .  A
C87        C1190   1.438       .  S
O92          C95   1.265       .  A
O92         Cd97   2.474       .  S
C93         O102   1.265       .  A
C93          O98   1.263       .  A
C93        C1162   1.434       .  S
O94         C100   1.268       .  A
O94         Cd97   2.498       .  S
C95         O103   1.263       .  A
C95        C1134   1.431       .  S
C96         O101   1.266       .  A
C96          O99   1.263       .  A
C96        C1192   1.440       .  S
Cd97        O104   2.427       .  S
Cd97        O103   2.434       .  S
Cd97        O102   2.468       .  S
Cd97         O98   2.451       .  S
Cd97        O101   2.492       .  S
Cd97         O99   2.463       .  S
C100        O104   1.261       .  A
C100       C1150   1.435       .  S
O105        C108   1.265       .  A
O105       Cd110   2.456       .  S
C106        O115   1.262       .  A
C106        O111   1.265       .  A
C106       C1094   1.433       .  S
O107        C113   1.268       .  A
O107       Cd110   2.492       .  S
C108        O116   1.265       .  A
C108       C1164   1.435       .  S
C109        O114   1.266       .  A
C109        O112   1.264       .  A
C109       C1122   1.442       .  S
Cd110       O117   2.430       .  S
Cd110       O116   2.467       .  S
Cd110       O115   2.436       .  S
Cd110       O111   2.481       .  S
Cd110       O114   2.494       .  S
Cd110       O112   2.465       .  S
C113        O117   1.261       .  A
C113       C1106   1.434       .  S
O118        C121   1.264       .  A
O118       Cd123   2.452       .  S
C119        O128   1.262       .  A
C119        O124   1.265       .  A
C119       C1052   1.429       .  S
O120        C126   1.266       .  A
O120       Cd123   2.492       .  S
C121        O129   1.265       .  A
C121       C1064   1.431       .  S
C122        O127   1.266       .  A
C122        O125   1.263       .  A
C122       C1120   1.442       .  S
Cd123       O130   2.448       .  S
Cd123       O129   2.458       .  S
Cd123       O128   2.425       .  S
Cd123       O124   2.475       .  S
Cd123       O127   2.495       .  S
Cd123       O125   2.468       .  S
C126        O130   1.261       .  A
C126       C1080   1.437       .  S
O131        C134   1.264       .  A
O131       Cd136   2.459       .  S
C132        O141   1.263       .  A
C132        O137   1.265       .  A
C132       C1008   1.430       .  S
O133        C139   1.266       .  A
O133       Cd136   2.495       .  S
C134        O142   1.265       .  A
C134       C1472   1.434       .  S
C135        O140   1.267       .  A
C135        O138   1.261       .  A
C135       C1022   1.435       .  S
Cd136       O143   2.455       .  S
Cd136       O142   2.464       .  S
Cd136       O141   2.431       .  S
Cd136       O137   2.473       .  S
Cd136       O140   2.496       .  S
Cd136       O138   2.431       .  S
C139        O143   1.262       .  A
C139       C1036   1.439       .  S
O144        C147   1.264       .  A
O144       Cd149   2.445       .  S
C145        O154   1.263       .  A
C145        O150   1.264       .  A
C145        C980   1.429       .  S
O146        C152   1.267       .  A
O146       Cd149   2.492       .  S
C147        O155   1.265       .  A
C147       C1066   1.428       .  S
C148        O153   1.268       .  A
C148        O151   1.261       .  A
C148        C994   1.436       .  S
Cd149       O156   2.450       .  S
Cd149       O155   2.441       .  S
Cd149       O154   2.433       .  S
Cd149       O150   2.463       .  S
Cd149       O153   2.493       .  S
Cd149       O151   2.435       .  S
C152        O156   1.263       .  A
C152       C1038   1.438       .  S
O157        C160   1.264       .  A
O157       Cd162   2.457       .  S
C158        O167   1.264       .  A
C158        O163   1.263       .  A
C158        C954   1.431       .  S
O159        C165   1.267       .  A
O159       Cd162   2.502       .  S
C160        O168   1.264       .  A
C160        C938   1.427       .  S
C161        O166   1.266       .  A
C161        O164   1.262       .  A
C161        C966   1.437       .  S
Cd162       O169   2.436       .  S
Cd162       O168   2.434       .  S
Cd162       O167   2.465       .  S
Cd162       O163   2.445       .  S
Cd162       O166   2.490       .  S
Cd162       O164   2.453       .  S
C165        O169   1.261       .  A
C165       C1374   1.436       .  S
O170        C173   1.265       .  A
O170       Cd175   2.457       .  S
C171        O180   1.263       .  A
C171        O176   1.267       .  A
C171       C1304   1.430       .  S
O172        C178   1.266       .  A
O172       Cd175   2.487       .  S
C173        O181   1.264       .  A
C173        C924   1.432       .  S
C174        O179   1.267       .  A
C174        O177   1.262       .  A
C174        C910   1.432       .  S
Cd175       O182   2.449       .  S
Cd175       O181   2.454       .  S
Cd175       O180   2.421       .  S
Cd175       O176   2.477       .  S
Cd175       O179   2.475       .  S
Cd175       O177   2.431       .  S
C178        O182   1.263       .  A
C178        C968   1.437       .  S
O183        C186   1.263       .  A
O183       Cd188   2.450       .  S
C184        O193   1.262       .  A
C184        O189   1.265       .  A
C184        C884   1.431       .  S
O185        C191   1.266       .  A
O185       Cd188   2.483       .  S
C186        O194   1.265       .  A
C186        C952   1.433       .  S
C187        O192   1.265       .  A
C187        O190   1.263       .  A
C187        C896   1.440       .  S
Cd188       O195   2.444       .  S
Cd188       O194   2.473       .  S
Cd188       O193   2.430       .  S
Cd188       O189   2.481       .  S
Cd188       O192   2.489       .  S
Cd188       O190   2.465       .  S
C191        O195   1.262       .  A
C191       C1414   1.434       .  S
O196        C199   1.263   1_565  A
O196       Cd201   2.459   1_565  S
C197        O206   1.264       .  A
C197        O202   1.264       .  A
C197       C1428   1.433       .  S
O198        C204   1.266       .  A
O198       Cd201   2.500       .  S
C199        O207   1.264       .  A
C199        C854   1.433       .  S
C200        O205   1.265       .  A
C200        O203   1.264       .  A
C200        C898   1.440       .  S
Cd201       O208   2.432   1_545  S
Cd201       O207   2.471       .  S
Cd201       O206   2.445   1_545  S
Cd201       O202   2.479   1_545  S
Cd201       O205   2.482       .  S
Cd201       O203   2.469       .  S
C204        O208   1.261   1_545  A
C204        C868   1.434       .  S
O209        C212   1.264       .  A
O209       Cd214   2.470       .  S
C210        O219   1.263       .  A
C210        O215   1.266       .  A
C210        C812   1.430       .  S
O211        C217   1.265       .  A
O211       Cd214   2.504       .  S
C212        O220   1.263       .  A
C212        C826   1.435       .  S
C213        O218   1.268       .  A
C213        O216   1.261       .  A
C213       C1206   1.436       .  S
Cd214       O221   2.464       .  S
Cd214       O220   2.464       .  S
Cd214       O219   2.424       .  S
Cd214       O215   2.477       .  S
Cd214       O218   2.496       .  S
Cd214       O216   2.433       .  S
C217        O221   1.263       .  A
C217        C840   1.441       .  S
O222        C225   1.264   1_545  A
O222       Cd227   2.458   1_545  S
C223        O232   1.263       .  A
C223        O228   1.266       .  A
C223       C1136   1.431       .  S
O224        C230   1.265       .  A
O224       Cd227   2.492       .  S
C225        O233   1.264       .  A
C225        C856   1.432   1_565  S
C226        O231   1.267       .  A
C226        O229   1.262   1_565  A
C226        C798   1.433       .  S
Cd227       O234   2.458       .  S
Cd227       O233   2.455       .  S
Cd227       O232   2.426   1_565  S
Cd227       O228   2.476   1_565  S
Cd227       O231   2.484       .  S
Cd227       O229   2.436   1_565  S
C230        O234   1.262       .  A
C230        C842   1.439       .  S
O235        C238   1.264       .  A
O235       Cd240   2.462       .  S
C236        O245   1.262       .  A
C236        O241   1.266       .  A
C236       C1220   1.432       .  S
O237        C243   1.267       .  A
O237       Cd240   2.494       .  S
C238        O246   1.264       .  A
C238        C786   1.434       .  S
C239        O244   1.265       .  A
C239        O242   1.263       .  A
C239        C772   1.438       .  S
Cd240       O247   2.435       .  S
Cd240       O246   2.466       .  S
Cd240       O245   2.427       .  S
Cd240       O241   2.487       .  S
Cd240       O244   2.484       .  S
Cd240       O242   2.461       .  S
C243        O247   1.262       .  A
C243        C758   1.436       .  S
O248        C251   1.265       .  A
O248       Cd253   2.456       .  S
C249        O258   1.262       .  A
C249        O254   1.265       .  A
C249        C742   1.430       .  S
O250        C256   1.266       .  A
O250       Cd253   2.488       .  S
C251        O259   1.265       .  A
C251        C828   1.434       .  S
C252        O257   1.266       .  A
C252        O255   1.263       .  A
C252        C770   1.438       .  S
Cd253       O260   2.442       .  S
Cd253       O259   2.460       .  S
Cd253       O258   2.429       .  S
Cd253       O254   2.476       .  S
Cd253       O257   2.486       .  S
Cd253       O255   2.452       .  S
C256        O260   1.261       .  A
C256       C1290   1.435       .  S
O261        C264   1.263       .  A
O261       Cd266   2.462   1_556  S
C262        O271   1.264   1_556  A
C262        O267   1.264       .  A
C262        C702   1.430   1_556  S
O263        C269   1.267       .  A
O263       Cd266   2.498       .  S
C264        O272   1.264   1_556  A
C264        C714   1.435       .  S
C265        O270   1.264       .  A
C265        O268   1.263       .  A
C265        C728   1.440       .  S
Cd266       O273   2.445       .  S
Cd266       O272   2.470       .  S
Cd266       O271   2.440       .  S
Cd266       O267   2.466   1_554  S
Cd266       O270   2.488   1_554  S
Cd266       O268   2.475   1_554  S
C269        O273   1.261       .  A
C269       C1078   1.438       .  S
O274        C277   1.263       .  A
O274       Cd279   2.449       .  S
C275        O284   1.262       .  A
C275        O280   1.264       .  A
C275       C1092   1.431       .  S
O276        C282   1.266       .  A
O276       Cd279   2.484       .  S
C277        O285   1.264       .  A
C277        C926   1.431       .  S
C278        O283   1.264       .  A
C278        O281   1.263       .  A
C278        C730   1.438       .  S
Cd279       O286   2.439       .  S
Cd279       O285   2.463       .  S
Cd279       O284   2.436       .  S
Cd279       O280   2.479       .  S
Cd279       O283   2.486       .  S
Cd279       O281   2.468       .  S
C282        O286   1.262       .  A
C282        C686   1.434       .  S
O287        C290   1.264       .  A
O287       Cd292   2.468       .  S
C288        O297   1.265       .  A
C288        O293   1.264       .  A
C288        C784   1.432       .  S
O289        C295   1.268       .  A
O289       Cd292   2.504       .  S
C290        O298   1.263       .  A
C290       C1010   1.429       .  S
C291        O296   1.267       .  A
C291        O294   1.263       .  A
C291        C672   1.441       .  S
Cd292       O299   2.437       .  S
Cd292       O298   2.436       .  S
Cd292       O297   2.454       .  S
Cd292       O293   2.451       .  S
Cd292       O296   2.496       .  S
Cd292       O294   2.462       .  S
C295        O299   1.261       .  A
C295        C658   1.438       .  S
O300        C303   1.265       .  A
O300       Cd305   2.468       .  S
C301        O310   1.265       .  A
C301        O306   1.263       .  A
C301        C716   1.437       .  S
O302        C308   1.267       .  A
O302       Cd305   2.502       .  S
C303        O311   1.263       .  A
C303        C644   1.431       .  S
C304        O309   1.266       .  A
C304        O307   1.263       .  A
C304        C674   1.441       .  S
Cd305       O312   2.439       .  S
Cd305       O311   2.442       .  S
Cd305       O310   2.478       .  S
Cd305       O306   2.468       .  S
Cd305       O309   2.502       .  S
Cd305       O307   2.460       .  S
C308        O312   1.261       .  A
C308        C996   1.437       .  S
O313        C316   1.263       .  A
O313       Cd318   2.451       .  S
C314        O323   1.263       .  A
C314        O319   1.266       .  A
C314        C646   1.429       .  S
O315        C321   1.266       .  A
O315       Cd318   2.499       .  S
C316        O324   1.264       .  A
C316        C616   1.432       .  S
C317        O322   1.268       .  A
C317        O320   1.261       .  A
C317       C1024   1.435       .  S
Cd318       O325   2.460       .  S
Cd318       O324   2.463       .  S
Cd318       O323   2.424       .  S
Cd318       O319   2.472       .  S
Cd318       O322   2.494       .  S
Cd318       O320   2.432       .  S
C321        O325   1.262       .  A
C321        C632   1.441       .  S
O326        C329   1.263       .  A
O326       Cd331   2.454       .  S
C327        O336   1.263       .  A
C327        O332   1.265       .  A
C327        C982   1.430       .  S
O328        C334   1.265       .  A
O328       Cd331   2.494       .  S
C329        O337   1.265       .  A
C329        C602   1.435       .  S
C330        O335   1.268       .  A
C330        O333   1.261       .  A
C330        C660   1.437       .  S
Cd331       O338   2.474       .  S
Cd331       O337   2.472       .  S
Cd331       O336   2.429       .  S
Cd331       O332   2.474       .  S
Cd331       O335   2.499       .  S
Cd331       O333   2.437       .  S
C334        O338   1.264       .  A
C334        C630   1.442       .  S
O339        C342   1.263       .  A
O339       Cd344   2.447       .  S
C340        O349   1.264       .  A
C340        O345   1.262       .  A
C340        C882   1.430       .  S
O341        C347   1.266       .  A
O341       Cd344   2.486       .  S
C342        O350   1.265       .  A
C342        C618   1.431       .  S
C343        O348   1.263       .  A
C343        O346   1.262       .  A
C343        C588   1.438       .  S
Cd344       O351   2.446       .  S
Cd344       O350   2.464       .  S
Cd344       O349   2.462       .  S
Cd344       O345   2.452       .  S
Cd344       O348   2.484       .  S
Cd344       O346   2.473       .  S
C347        O351   1.262       .  A
C347       C1444   1.435       .  S
O352        C355   1.264       .  A
O352       Cd357   2.457   1_556  S
C353        O362   1.265   1_544  A
C353        O358   1.261       .  A
C353       C1388   1.431       .  S
O354        C360   1.264       .  A
O354       Cd357   2.452       .  S
C355        O363   1.263   1_556  A
C355        C574   1.432       .  S
C356        O361   1.264       .  A
C356        O359   1.263       .  A
C356        C590   1.437       .  S
Cd357       O364   2.460       .  S
Cd357       O363   2.462       .  S
Cd357       O362   2.475   1_554  S
Cd357       O358   2.449   1_565  S
Cd357       O361   2.484   1_554  S
Cd357       O359   2.459   1_554  S
C360        O364   1.264       .  A
C360        C870   1.432       .  S
O365        C368   1.263       .  A
O365       Cd370   2.444       .  S
C366        O375   1.263   1_455  A
C366        O371   1.265       .  A
C366        C744   1.429       .  S
O367        C373   1.267       .  A
O367       Cd370   2.494       .  S
C368        O376   1.265       .  A
C368        C546   1.431       .  S
C369        O374   1.266       .  A
C369        O372   1.264       .  A
C369        C560   1.442       .  S
Cd370       O377   2.439       .  S
Cd370       O376   2.467       .  S
Cd370       O375   2.424       .  S
Cd370       O371   2.474   1_655  S
Cd370       O374   2.492       .  S
Cd370       O372   2.470       .  S
C373        O377   1.261       .  A
C373       C1234   1.435       .  S
O378        C381   1.263       .  A
O378       Cd383   2.453       .  S
C379        O388   1.262       .  A
C379        O384   1.266       .  A
C379       C1248   1.428       .  S
O380        C386   1.268       .  A
O380       Cd383   2.499       .  S
C381        O389   1.266       .  A
C381        C604   1.436       .  S
C382        O387   1.267       .  A
C382        O385   1.263       .  A
C382        C562   1.442       .  S
Cd383       O390   2.437       .  S
Cd383       O389   2.477       .  S
Cd383       O388   2.423       .  S
Cd383       O384   2.472       .  S
Cd383       O387   2.494       .  S
Cd383       O385   2.466       .  S
C386        O390   1.261       .  A
C386        C756   1.437       .  S
O391        C394   1.262   1_655  A
O391       Cd396   2.456   1_655  S
C392        O401   1.263       .  A
C392        O397   1.264       .  A
C392        C940   1.428       .  S
O393        C399   1.264       .  A
O393       Cd396   2.489       .  S
C394        O402   1.263       .  A
C394        C548   1.431       .  S
C395        O400   1.267       .  A
C395        O398   1.261   1_455  A
C395       C1330   1.435       .  S
Cd396       O403   2.471       .  S
Cd396       O402   2.461       .  S
Cd396       O401   2.424   1_455  S
Cd396       O397   2.471   1_455  S
Cd396       O400   2.498       .  S
Cd396       O398   2.434   1_455  S
C399        O403   1.263       .  A
C399        C534   1.439       .  S
O404        C407   1.263       .  A
O404       Cd409   2.456       .  S
C405        O414   1.263       .  A
C405        O410   1.265       .  A
C405       C1346   1.428       .  S
O406        C412   1.264       .  A
O406       Cd409   2.485       .  S
C407        O415   1.264       .  A
C407        C520   1.433       .  S
C408        O413   1.267       .  A
C408        O411   1.261       .  A
C408        C912   1.433       .  S
Cd409       O416   2.465       .  S
Cd409       O415   2.462       .  S
Cd409       O414   2.423       .  S
Cd409       O410   2.468       .  S
Cd409       O413   2.486       .  S
Cd409       O411   2.433       .  S
C412        O416   1.262       .  A
C412        C532   1.438       .  S
O417        C420   1.262       .  A
O417       Cd422   2.446       .  S
C418        O427   1.263       .  A
C418        O423   1.265       .  A
C418       C1178   1.427   1_545  S
O419        C425   1.266       .  A
O419       Cd422   2.495       .  S
C420        O428   1.265       .  A
C420        C576   1.432       .  S
C421        O426   1.267       .  A
C421        O424   1.261       .  A
C421        C800   1.433       .  S
Cd422       O429   2.454       .  S
Cd422       O428   2.469       .  S
Cd422       O427   2.429       .  S
Cd422       O423   2.462       .  S
Cd422       O426   2.485       .  S
Cd422       O424   2.431       .  S
C425        O429   1.262       .  A
C425        C506   1.439       .  S
O430        C433   1.264       .  A
O430       Cd435   2.454       .  S
C431        O440   1.262       .  A
C431        O436   1.265       .  A
C431        C814   1.429       .  S
O432        C438   1.266       .  A
O432       Cd435   2.499       .  S
C433        O441   1.266       .  A
C433        C490   1.435       .  S
C434        O439   1.261       .  A
C434        O437   1.266       .  A
C434       C1148   1.434       .  S
Cd435       O442   2.456       .  S
Cd435       O441   2.470       .  S
Cd435       O440   2.429       .  S
Cd435       O436   2.468       .  S
Cd435       O439   2.434       .  S
Cd435       O437   2.492       .  S
C438        O442   1.262       .  A
C438        C504   1.440       .  S
O443        C446   1.263       .  A
O443       Cd448   2.468       .  S
C444        O453   1.263       .  A
C444        O449   1.265       .  A
C444       C1050   1.430       .  S
O445        C451   1.266       .  A
O445       Cd448   2.495       .  S
C446        O454   1.263       .  A
C446        C518   1.435       .  S
C447        O452   1.264       .  A
C447        O450   1.263       .  A
C447        C478   1.439       .  S
Cd448       O455   2.438       .  S
Cd448       O454   2.473       .  S
Cd448       O453   2.430       .  S
Cd448       O449   2.476       .  S
Cd448       O452   2.479       .  S
Cd448       O450   2.475       .  S
C451        O455   1.261       .  A
C451        C688   1.435       .  S
O456        C459   1.264       .  A
O456       Cd461   2.457       .  S
C457        O466   1.264       .  A
C457        O462   1.261       .  A
C457        C700   1.430       .  S
O458        C464   1.264       .  A
O458       Cd461   2.467       .  S
C459        O467   1.264       .  A
C459        C492   1.433       .  S
C460        O465   1.263       .  A
C460        O463   1.263       .  A
C460        C476   1.437       .  S
Cd461       O468   2.453       .  S
Cd461       O467   2.457       .  S
Cd461       O466   2.458       .  S
Cd461       O462   2.458       .  S
Cd461       O465   2.478       .  S
Cd461       O463   2.471       .  S
C464        O468   1.263       .  A
C464       C1108   1.432   1_554  S
C469        C477   1.443       .  S
C469        C470   1.402       .  A
C469        C474   1.402       .  A
C470        C471   1.399       .  A
C470        H479   1.084       .  S
C471        C472   1.401       .  A
C471        H480   1.083       .  S
C472        C475   1.442       .  S
C472        C473   1.402       .  A
C473        C474   1.401       .  A
C473        H481   1.084       .  S
C474        H482   1.083       .  S
C475        C476   1.207       .  T
C477        C478   1.208       .  T
C483        C491   1.439       .  S
C483        C484   1.402       .  A
C483        C488   1.400       .  A
C484        C485   1.399       .  A
C484        H493   1.083       .  S
C485        C486   1.401       .  A
C485        H494   1.083       .  S
C486        C489   1.440       .  S
C486        C487   1.402       .  A
C487        C488   1.398       .  A
C487        H495   1.084       .  S
C488        H496   1.084       .  S
C489        C490   1.206       .  T
C491        C492   1.205       .  T
C497        C505   1.444       .  S
C497        C498   1.403       .  A
C497        C502   1.401       .  A
C498        C499   1.404       .  A
C498        H507   1.083       .  S
C499        C500   1.403       .  A
C499        H508   1.083       .  S
C500        C503   1.444       .  S
C500        C501   1.401       .  A
C501        C502   1.398       .  A
C501        H509   1.084       .  S
C502        H510   1.084       .  S
C503        C504   1.209       .  T
C505        C506   1.208   1_554  T
C511        C519   1.438       .  S
C511        C512   1.402       .  A
C511        C516   1.400       .  A
C512        C513   1.400       .  A
C512        H521   1.083       .  S
C513        C514   1.402       .  A
C513        H522   1.083       .  S
C514        C517   1.440       .  S
C514        C515   1.401       .  A
C515        C516   1.397       .  A
C515        H523   1.084       .  S
C516        H524   1.084       .  S
C517        C518   1.206       .  T
C519        C520   1.205       .  T
C525        C533   1.444       .  S
C525        C526   1.403       .  A
C525        C530   1.401       .  A
C526        C527   1.402       .  A
C526        H535   1.084       .  S
C527        C528   1.402       .  A
C527        H536   1.083       .  S
C528        C531   1.443       .  S
C528        C529   1.402       .  A
C529        C530   1.399       .  A
C529        H537   1.084       .  S
C530        H538   1.084       .  S
C531        C532   1.208       .  T
C533        C534   1.208       .  T
C539        C547   1.437   1_655  S
C539        C540   1.401   1_655  A
C539        C544   1.401       .  A
C540        C541   1.397   1_455  A
C540        H549   1.084       .  S
C541        C542   1.400       .  A
C541        H550   1.083   1_655  S
C542        C545   1.437       .  S
C542        C543   1.402       .  A
C543        C544   1.399       .  A
C543        H551   1.083       .  S
C544        H552   1.083       .  S
C545        C546   1.204       .  T
C547        C548   1.204       .  T
C553        C561   1.447       .  S
C553        C554   1.403       .  A
C553        C558   1.403       .  A
C554        C555   1.401       .  A
C554        H563   1.084       .  S
C555        C556   1.402       .  A
C555        H564   1.084       .  S
C556        C559   1.447       .  S
C556        C557   1.403       .  A
C557        C558   1.402       .  A
C557        H565   1.083       .  S
C558        H566   1.084       .  S
C559        C560   1.210       .  T
C561        C562   1.210       .  T
C567        C575   1.438       .  S
C567        C568   1.400       .  A
C567        C572   1.402   1_545  A
C568        C569   1.397       .  A
C568        H577   1.084       .  S
C569        C570   1.401   1_545  A
C569        H578   1.084       .  S
C570        C573   1.437       .  S
C570        C571   1.401       .  A
C571        C572   1.399       .  A
C571        H579   1.083       .  S
C572        H580   1.083       .  S
C573        C574   1.204       .  T
C575        C576   1.204       .  T
C581        C589   1.442       .  S
C581        C582   1.400       .  A
C581        C586   1.403       .  A
C582        C583   1.396       .  A
C582        H591   1.084       .  S
C583        C584   1.400       .  A
C583        H592   1.084       .  S
C584        C587   1.442       .  S
C584        C585   1.403       .  A
C585        C586   1.403       .  A
C585        H593   1.083       .  S
C586        H594   1.083       .  S
C587        C588   1.207       .  T
C589        C590   1.207       .  T
C595        C603   1.441       .  S
C595        C596   1.401       .  A
C595        C600   1.402       .  A
C596        C597   1.399       .  A
C596        H605   1.084       .  S
C597        C598   1.402       .  A
C597        H606   1.084       .  S
C598        C601   1.440       .  S
C598        C599   1.400       .  A
C599        C600   1.399       .  A
C599        H607   1.084       .  S
C600        H608   1.084       .  S
C601        C602   1.206       .  T
C603        C604   1.206       .  T
C609        C617   1.436       .  S
C609        C610   1.401       .  A
C609        C614   1.400       .  A
C610        C611   1.398       .  A
C610        H619   1.084       .  S
C611        C612   1.400       .  A
C611        H620   1.083       .  S
C612        C615   1.437       .  S
C612        C613   1.401       .  A
C613        C614   1.398       .  A
C613        H621   1.084       .  S
C614        H622   1.083       .  S
C615        C616   1.204       .  T
C617        C618   1.204       .  T
C623        C631   1.446       .  S
C623        C624   1.403       .  A
C623        C628   1.402       .  A
C624        C625   1.403       .  A
C624        H633   1.083       .  S
C625        C626   1.403       .  A
C625        H634   1.083       .  S
C626        C629   1.447       .  S
C626        C627   1.402       .  A
C627        C628   1.400       .  A
C627        H635   1.083       .  S
C628        H636   1.084       .  S
C629        C630   1.210       .  T
C631        C632   1.210       .  T
C637        C645   1.435       .  S
C637        C638   1.402       .  A
C637        C642   1.399       .  A
C638        C639   1.398       .  A
C638        H647   1.083       .  S
C639        C640   1.400       .  A
C639        H648   1.084       .  S
C640        C643   1.436       .  S
C640        C641   1.402       .  A
C641        C642   1.397       .  A
C641        H649   1.083       .  S
C642        H650   1.084       .  S
C643        C644   1.204       .  T
C645        C646   1.203       .  T
C651        C659   1.443       .  S
C651        C652   1.403       .  A
C651        C656   1.401       .  A
C652        C653   1.400       .  A
C652        H661   1.083       .  S
C653        C654   1.401       .  A
C653        H662   1.084       .  S
C654        C657   1.443       .  S
C654        C655   1.403       .  A
C655        C656   1.400       .  A
C655        H663   1.083       .  S
C656        H664   1.084       .  S
C657        C658   1.208       .  T
C659        C660   1.208       .  T
C665        C673   1.446       .  S
C665        C666   1.403       .  A
C665        C670   1.402       .  A
C666        C667   1.403       .  A
C666        H675   1.083       .  S
C667        C668   1.404       .  A
C667        H676   1.083       .  S
C668        C671   1.446       .  S
C668        C669   1.401       .  A
C669        C670   1.399       .  A
C669        H677   1.084       .  S
C670        H678   1.084       .  S
C671        C672   1.210       .  T
C673        C674   1.209   1_554  T
C679        C687   1.440       .  S
C679        C680   1.401       .  A
C679        C684   1.402       .  A
C680        C681   1.399       .  A
C680        H689   1.083       .  S
C681        C682   1.401       .  A
C681        H690   1.084       .  S
C682        C685   1.440       .  S
C682        C683   1.401       .  A
C683        C684   1.399       .  A
C683        H691   1.083       .  S
C684        H692   1.084       .  S
C685        C686   1.206       .  T
C687        C688   1.206       .  T
C693        C701   1.435       .  S
C693        C694   1.402       .  A
C693        C698   1.399       .  A
C694        C695   1.397       .  A
C694        H703   1.083       .  S
C695        C696   1.399       .  A
C695        H704   1.084       .  S
C696        C699   1.435       .  S
C696        C697   1.402       .  A
C697        C698   1.397       .  A
C697        H705   1.083       .  S
C698        H706   1.084   1_554  S
C699        C700   1.203       .  T
C701        C702   1.203       .  T
C707        C715   1.442       .  S
C707        C708   1.401       .  A
C707        C712   1.403       .  A
C708        C709   1.398       .  A
C708        H717   1.084       .  S
C709        C710   1.401       .  A
C709        H718   1.084       .  S
C710        C713   1.440       .  S
C710        C711   1.401       .  A
C711        C712   1.401       .  A
C711        H719   1.083       .  S
C712        H720   1.084       .  S
C713        C714   1.206       .  T
C715        C716   1.207       .  T
C721        C729   1.443       .  S
C721        C722   1.402       .  A
C721        C726   1.402       .  A
C722        C723   1.401       .  A
C722        H731   1.083       .  S
C723        C724   1.403       .  A
C723        H732   1.083       .  S
C724        C727   1.444       .  S
C724        C725   1.402       .  A
C725        C726   1.400       .  A
C725        H733   1.084       .  S
C726        H734   1.083       .  S
C727        C728   1.209       .  T
C729        C730   1.208       .  T
C735        C743   1.435       .  S
C735        C736   1.399       .  A
C735        C740   1.402       .  A
C736        C737   1.398       .  A
C736        H745   1.084       .  S
C737        C738   1.402       .  A
C737        H746   1.083       .  S
C738        C741   1.436       .  S
C738        C739   1.399       .  A
C739        C740   1.397       .  A
C739        H747   1.085       .  S
C740        H748   1.083       .  S
C741        C742   1.203       .  T
C743        C744   1.203       .  T
C749        C757   1.442       .  S
C749        C750   1.402       .  A
C749        C754   1.401       .  A
C750        C751   1.399       .  A
C750        H759   1.084       .  S
C751        C752   1.400       .  A
C751        H760   1.083       .  S
C752        C755   1.443       .  S
C752        C753   1.404       .  A
C753        C754   1.401       .  A
C753        H761   1.084       .  S
C754        H762   1.083       .  S
C755        C756   1.208       .  T
C757        C758   1.207   1_556  T
C763        C771   1.443       .  S
C763        C764   1.402       .  A
C763        C768   1.402   1_655  A
C764        C765   1.399       .  A
C764        H773   1.083       .  S
C765        C766   1.401   1_655  A
C765        H774   1.084       .  S
C766        C769   1.442       .  S
C766        C767   1.402       .  A
C767        C768   1.401       .  A
C767        H775   1.083       .  S
C768        H776   1.084       .  S
C769        C770   1.207       .  T
C771        C772   1.208       .  T
C777        C785   1.438       .  S
C777        C778   1.402       .  A
C777        C782   1.401       .  A
C778        C779   1.399       .  A
C778        H787   1.084       .  S
C779        C780   1.401       .  A
C779        H788   1.084       .  S
C780        C783   1.437       .  S
C780        C781   1.401       .  A
C781        C782   1.397       .  A
C781        H789   1.084       .  S
C782        H790   1.084       .  S
C783        C784   1.204       .  T
C785        C786   1.205       .  T
C791        C799   1.438       .  S
C791        C792   1.402       .  A
C791        C796   1.400       .  A
C792        C793   1.399   1_545  A
C792        H801   1.083   1_545  S
C793        C794   1.401   1_565  A
C793        H802   1.084       .  S
C794        C797   1.439       .  S
C794        C795   1.402       .  A
C795        C796   1.398       .  A
C795        H803   1.083       .  S
C796        H804   1.084       .  S
C797        C798   1.205   1_545  T
C799        C800   1.205       .  T
C805        C813   1.435       .  S
C805        C806   1.399       .  A
C805        C810   1.402       .  A
C806        C807   1.397   1_545  A
C806        H815   1.084       .  S
C807        C808   1.402       .  A
C807        H816   1.083       .  S
C808        C811   1.435       .  S
C808        C809   1.400   1_565  A
C809        C810   1.398       .  A
C809        H817   1.084       .  S
C810        H818   1.083       .  S
C811        C812   1.203       .  T
C813        C814   1.203       .  T
C819        C827   1.439       .  S
C819        C820   1.401       .  A
C819        C824   1.401       .  A
C820        C821   1.397       .  A
C820        H829   1.084       .  S
C821        C822   1.400       .  A
C821        H830   1.083       .  S
C822        C825   1.440       .  S
C822        C823   1.403       .  A
C823        C824   1.400       .  A
C823        H831   1.083       .  S
C824        H832   1.083       .  S
C825        C826   1.206       .  T
C827        C828   1.205       .  T
C833        C841   1.444       .  S
C833        C834   1.400       .  A
C833        C838   1.404       .  A
C834        C835   1.398       .  A
C834        H843   1.084       .  S
C835        C836   1.401       .  A
C835        H844   1.084       .  S
C836        C839   1.445       .  S
C836        C837   1.403       .  A
C837        C838   1.403       .  A
C837        H845   1.083       .  S
C838        H846   1.083       .  S
C839        C840   1.209       .  T
C841        C842   1.208       .  T
C847        C855   1.437       .  S
C847        C848   1.400       .  A
C847        C852   1.401       .  A
C848        C849   1.398       .  A
C848        H857   1.084       .  S
C849        C850   1.402       .  A
C849        H858   1.084       .  S
C850        C853   1.438       .  S
C850        C851   1.400       .  A
C851        C852   1.398       .  A
C851        H859   1.084       .  S
C852        H860   1.084       .  S
C853        C854   1.205       .  T
C855        C856   1.204       .  T
C861        C869   1.438       .  S
C861        C862   1.399       .  A
C861        C866   1.403       .  A
C862        C863   1.397       .  A
C862        H871   1.084       .  S
C863        C864   1.402       .  A
C863        H872   1.084       .  S
C864        C867   1.440   1_565  S
C864        C865   1.401   1_565  A
C865        C866   1.400   1_545  A
C865        H873   1.083       .  S
C866        H874   1.083   1_565  S
C867        C868   1.206       .  T
C869        C870   1.205       .  T
C875        C883   1.436       .  S
C875        C876   1.402       .  A
C875        C880   1.399   1_545  A
C876        C877   1.398   1_545  A
C876        H885   1.083       .  S
C877        C878   1.399       .  A
C877        H886   1.084       .  S
C878        C881   1.436       .  S
C878        C879   1.402       .  A
C879        C880   1.397       .  A
C879        H887   1.083       .  S
C880        H888   1.084       .  S
C881        C882   1.203       .  T
C883        C884   1.204       .  T
C889        C897   1.444       .  S
C889        C890   1.402       .  A
C889        C894   1.402       .  A
C890        C891   1.400       .  A
C890        H899   1.083       .  S
C891        C892   1.402       .  A
C891        H900   1.083       .  S
C892        C895   1.444       .  S
C892        C893   1.402       .  A
C893        C894   1.401       .  A
C893        H901   1.083       .  S
C894        H902   1.084       .  S
C895        C896   1.209       .  T
C897        C898   1.209       .  T
C903        C911   1.438       .  S
C903        C904   1.400       .  A
C903        C908   1.402       .  A
C904        C905   1.399       .  A
C904        H913   1.084       .  S
C905        C906   1.402       .  A
C905        H914   1.083       .  S
C906        C909   1.438   1_554  S
C906        C907   1.400       .  A
C907        C908   1.398       .  A
C907        H915   1.084       .  S
C908        H916   1.084       .  S
C909        C910   1.204       .  T
C911        C912   1.205       .  T
C917        C925   1.436       .  S
C917        C918   1.402       .  A
C917        C922   1.400       .  A
C918        C919   1.398       .  A
C918        H927   1.083       .  S
C919        C920   1.401       .  A
C919        H928   1.084       .  S
C920        C923   1.436       .  S
C920        C921   1.400       .  A
C921        C922   1.397       .  A
C921        H929   1.084       .  S
C922        H930   1.084       .  S
C923        C924   1.204       .  T
C925        C926   1.204       .  T
C931        C939   1.433       .  S
C931        C932   1.402       .  A
C931        C936   1.399       .  A
C932        C933   1.396       .  A
C932        H941   1.084       .  S
C933        C934   1.399       .  A
C933        H942   1.083       .  S
C934        C937   1.432       .  S
C934        C935   1.401       .  A
C935        C936   1.396       .  A
C935        H943   1.084       .  S
C936        H944   1.084       .  S
C937        C938   1.201       .  T
C939        C940   1.202       .  T
C945        C953   1.437       .  S
C945        C946   1.402       .  A
C945        C950   1.400       .  A
C946        C947   1.398       .  A
C946        H955   1.084       .  S
C947        C948   1.400       .  A
C947        H956   1.084       .  S
C948        C951   1.438       .  S
C948        C949   1.402       .  A
C949        C950   1.398       .  A
C949        H957   1.084       .  S
C950        H958   1.083       .  S
C951        C952   1.205       .  T
C953        C954   1.204       .  T
C959        C967   1.442       .  S
C959        C960   1.401       .  A
C959        C964   1.402   1_455  A
C960        C961   1.398       .  A
C960        H969   1.083       .  S
C961        C962   1.401   1_455  A
C961        H970   1.084       .  S
C962        C965   1.442       .  S
C962        C963   1.403       .  A
C963        C964   1.402       .  A
C963        H971   1.083       .  S
C964        H972   1.083       .  S
C965        C966   1.207       .  T
C967        C968   1.207       .  T
C973        C981   1.435       .  S
C973        C974   1.402       .  A
C973        C978   1.399       .  A
C974        C975   1.397       .  A
C974        H983   1.083       .  S
C975        C976   1.399       .  A
C975        H984   1.083       .  S
C976        C979   1.435       .  S
C976        C977   1.402       .  A
C977        C978   1.397       .  A
C977        H985   1.084       .  S
C978        H986   1.084       .  S
C979        C980   1.203       .  T
C981        C982   1.203       .  T
C987        C995   1.442       .  S
C987        C988   1.401       .  A
C987        C992   1.403       .  A
C988        C989   1.400       .  A
C988        H997   1.083       .  S
C989        C990   1.403       .  A
C989        H998   1.084       .  S
C990        C993   1.442       .  S
C990        C991   1.400       .  A
C991        C992   1.399       .  A
C991        H999   1.083       .  S
C992       H1000   1.084       .  S
C993        C994   1.207       .  T
C995        C996   1.207       .  T
C1001      C1009   1.434       .  S
C1001      C1002   1.399       .  A
C1001      C1006   1.401       .  A
C1002      C1003   1.397       .  A
C1002      H1011   1.083       .  S
C1003      C1004   1.402       .  A
C1003      H1012   1.083       .  S
C1004      C1007   1.435       .  S
C1004      C1005   1.399       .  A
C1005      C1006   1.397       .  A
C1005      H1013   1.084       .  S
C1006      H1014   1.083       .  S
C1007      C1008   1.203       .  T
C1009      C1010   1.203       .  T
C1015      C1023   1.441   1_554  S
C1015      C1016   1.400       .  A
C1015      C1020   1.403       .  A
C1016      C1017   1.399       .  A
C1016      H1025   1.083       .  S
C1017      C1018   1.402       .  A
C1017      H1026   1.084       .  S
C1018      C1021   1.441       .  S
C1018      C1019   1.401       .  A
C1019      C1020   1.399       .  A
C1019      H1027   1.083       .  S
C1020      H1028   1.084       .  S
C1021      C1022   1.206       .  T
C1023      C1024   1.206       .  T
C1029      C1037   1.443       .  S
C1029      C1030   1.402       .  A
C1029      C1034   1.402       .  A
C1030      C1031   1.402       .  A
C1030      H1039   1.083       .  S
C1031      C1032   1.403       .  A
C1031      H1040   1.084       .  S
C1032      C1035   1.444       .  S
C1032      C1033   1.402       .  A
C1033      C1034   1.399       .  A
C1033      H1041   1.083       .  S
C1034      H1042   1.084       .  S
C1035      C1036   1.208       .  T
C1037      C1038   1.208       .  T
C1043      C1051   1.435       .  S
C1043      C1044   1.402       .  A
C1043      C1048   1.399       .  A
C1044      C1045   1.397       .  A
C1044      H1053   1.083       .  S
C1045      C1046   1.399       .  A
C1045      H1054   1.084       .  S
C1046      C1049   1.435       .  S
C1046      C1047   1.403       .  A
C1047      C1048   1.398       .  A
C1047      H1055   1.083       .  S
C1048      H1056   1.084       .  S
C1049      C1050   1.203       .  T
C1051      C1052   1.203       .  T
C1057      C1065   1.434       .  S
C1057      C1058   1.401       .  A
C1057      C1062   1.400       .  A
C1058      C1059   1.397       .  A
C1058      H1067   1.084       .  S
C1059      C1060   1.400       .  A
C1059      H1068   1.084       .  S
C1060      C1063   1.436       .  S
C1060      C1061   1.401       .  A
C1061      C1062   1.397       .  A
C1061      H1069   1.084       .  S
C1062      H1070   1.084       .  S
C1063      C1064   1.204       .  T
C1065      C1066   1.202       .  T
C1071      C1079   1.443       .  S
C1071      C1072   1.400       .  A
C1071      C1076   1.403       .  A
C1072      C1073   1.400       .  A
C1072      H1081   1.084       .  S
C1073      C1074   1.403       .  A
C1073      H1082   1.083       .  S
C1074      C1077   1.443       .  S
C1074      C1075   1.401       .  A
C1075      C1076   1.400       .  A
C1075      H1083   1.084       .  S
C1076      H1084   1.083       .  S
C1077      C1078   1.208       .  T
C1079      C1080   1.208       .  T
C1085      C1093   1.437       .  S
C1085      C1086   1.402       .  A
C1085      C1090   1.400       .  A
C1086      C1087   1.397       .  A
C1086      H1095   1.084       .  S
C1087      C1088   1.399       .  A
C1087      H1096   1.084       .  S
C1088      C1091   1.436       .  S
C1088      C1089   1.402       .  A
C1089      C1090   1.399       .  A
C1089      H1097   1.083       .  S
C1090      H1098   1.083       .  S
C1091      C1092   1.203       .  T
C1093      C1094   1.205       .  T
C1099      C1107   1.438       .  S
C1099      C1100   1.402       .  A
C1099      C1104   1.401       .  A
C1100      C1101   1.398       .  A
C1100      H1109   1.084       .  S
C1101      C1102   1.400       .  A
C1101      H1110   1.083       .  S
C1102      C1105   1.440       .  S
C1102      C1103   1.402       .  A
C1103      C1104   1.399       .  A
C1103      H1111   1.084       .  S
C1104      H1112   1.083       .  S
C1105      C1106   1.206       .  T
C1107      C1108   1.205       .  T
C1113      C1121   1.447       .  S
C1113      C1114   1.403       .  A
C1113      C1118   1.402       .  A
C1114      C1115   1.402       .  A
C1114      H1123   1.084       .  S
C1115      C1116   1.403       .  A
C1115      H1124   1.083       .  S
C1116      C1119   1.446       .  S
C1116      C1117   1.402       .  A
C1117      C1118   1.401       .  A
C1117      H1125   1.084       .  S
C1118      H1126   1.083       .  S
C1119      C1120   1.210       .  T
C1121      C1122   1.210       .  T
C1127      C1135   1.436       .  S
C1127      C1128   1.399       .  A
C1127      C1132   1.402       .  A
C1128      C1129   1.397       .  A
C1128      H1137   1.084       .  S
C1129      C1130   1.402       .  A
C1129      H1138   1.083       .  S
C1130      C1133   1.436       .  S
C1130      C1131   1.399       .  A
C1131      C1132   1.398       .  A
C1131      H1139   1.084       .  S
C1132      H1140   1.083       .  S
C1133      C1134   1.204       .  T
C1135      C1136   1.203       .  T
C1141      C1149   1.441       .  S
C1141      C1142   1.402       .  A
C1141      C1146   1.401       .  A
C1142      C1143   1.400       .  A
C1142      H1151   1.084       .  S
C1143      C1144   1.401       .  A
C1143      H1152   1.083       .  S
C1144      C1147   1.441       .  S
C1144      C1145   1.402       .  A
C1145      C1146   1.399       .  A
C1145      H1153   1.084       .  S
C1146      H1154   1.083       .  S
C1147      C1148   1.206       .  T
C1149      C1150   1.206       .  T
C1155      C1163   1.439       .  S
C1155      C1156   1.401       .  A
C1155      C1160   1.401       .  A
C1156      C1157   1.400       .  A
C1156      H1165   1.084       .  S
C1157      C1158   1.403       .  A
C1157      H1166   1.083       .  S
C1158      C1161   1.439       .  S
C1158      C1159   1.400       .  A
C1159      C1160   1.397       .  A
C1159      H1167   1.084       .  S
C1160      H1168   1.084       .  S
C1161      C1162   1.205       .  T
C1163      C1164   1.206       .  T
C1169      C1177   1.433       .  S
C1169      C1170   1.402       .  A
C1169      C1174   1.399       .  A
C1170      C1171   1.396       .  A
C1170      H1179   1.083       .  S
C1171      C1172   1.399       .  A
C1171      H1180   1.084       .  S
C1172      C1175   1.433       .  S
C1172      C1173   1.402       .  A
C1173      C1174   1.396       .  A
C1173      H1181   1.084       .  S
C1174      H1182   1.084       .  S
C1175      C1176   1.202       .  T
C1177      C1178   1.201       .  T
C1183      C1191   1.444       .  S
C1183      C1184   1.402       .  A
C1183      C1188   1.402       .  A
C1184      C1185   1.400       .  A
C1184      H1193   1.083       .  S
C1185      C1186   1.402   1_545  A
C1185      H1194   1.083       .  S
C1186      C1189   1.444       .  S
C1186      C1187   1.402       .  A
C1187      C1188   1.401   1_565  A
C1187      H1195   1.083       .  S
C1188      H1196   1.084   1_545  S
C1189      C1190   1.208       .  T
C1191      C1192   1.209       .  T
C1197      C1205   1.441       .  S
C1197      C1198   1.400       .  A
C1197      C1202   1.403       .  A
C1198      C1199   1.399       .  A
C1198      H1207   1.083       .  S
C1199      C1200   1.403       .  A
C1199      H1208   1.084       .  S
C1200      C1203   1.441   1_554  S
C1200      C1201   1.400       .  A
C1201      C1202   1.400       .  A
C1201      H1209   1.083       .  S
C1202      H1210   1.084       .  S
C1203      C1204   1.206       .  T
C1205      C1206   1.207       .  T
C1211      C1219   1.436       .  S
C1211      C1212   1.403       .  A
C1211      C1216   1.399       .  A
C1212      C1213   1.399       .  A
C1212      H1221   1.083       .  S
C1213      C1214   1.400       .  A
C1213      H1222   1.083       .  S
C1214      C1217   1.435       .  S
C1214      C1215   1.401       .  A
C1215      C1216   1.396       .  A
C1215      H1223   1.084       .  S
C1216      H1224   1.084       .  S
C1217      C1218   1.203       .  T
C1219      C1220   1.204       .  T
C1225      C1233   1.441       .  S
C1225      C1226   1.401       .  A
C1225      C1230   1.402       .  A
C1226      C1227   1.399   1_655  A
C1226      H1235   1.084       .  S
C1227      C1228   1.401       .  A
C1227      H1236   1.083       .  S
C1228      C1231   1.441       .  S
C1228      C1229   1.402   1_455  A
C1229      C1230   1.400       .  A
C1229      H1237   1.084       .  S
C1230      H1238   1.083       .  S
C1231      C1232   1.206       .  T
C1233      C1234   1.206       .  T
C1239      C1247   1.434       .  S
C1239      C1240   1.399   1_655  A
C1239      C1244   1.402       .  A
C1240      C1241   1.396       .  A
C1240      H1249   1.084   1_455  S
C1241      C1242   1.402       .  A
C1241      H1250   1.083       .  S
C1242      C1245   1.433       .  S
C1242      C1243   1.399       .  A
C1243      C1244   1.397   1_455  A
C1243      H1251   1.084       .  S
C1244      H1252   1.083       .  S
C1245      C1246   1.202       .  T
C1247      C1248   1.202       .  T
C1253      C1261   1.439       .  S
C1253      C1254   1.401       .  A
C1253      C1258   1.401       .  A
C1254      C1255   1.399       .  A
C1254      H1263   1.083       .  S
C1255      C1256   1.402       .  A
C1255      H1264   1.084       .  S
C1256      C1259   1.438       .  S
C1256      C1257   1.400       .  A
C1257      C1258   1.398       .  A
C1257      H1265   1.083       .  S
C1258      H1266   1.084       .  S
C1259      C1260   1.204       .  T
C1261      C1262   1.205       .  T
C1267      C1275   1.443       .  S
C1267      C1268   1.402       .  A
C1267      C1272   1.402       .  A
C1268      C1269   1.401       .  A
C1268      H1277   1.084       .  S
C1269      C1270   1.403       .  A
C1269      H1278   1.083       .  S
C1270      C1273   1.443       .  S
C1270      C1271   1.401       .  A
C1271      C1272   1.399       .  A
C1271      H1279   1.084       .  S
C1272      H1280   1.084       .  S
C1273      C1274   1.208       .  T
C1275      C1276   1.208       .  T
C1281      C1289   1.441       .  S
C1281      C1282   1.400       .  A
C1281      C1286   1.403       .  A
C1282      C1283   1.399       .  A
C1282      H1291   1.083       .  S
C1283      C1284   1.403       .  A
C1283      H1292   1.084       .  S
C1284      C1287   1.441       .  S
C1284      C1285   1.400       .  A
C1285      C1286   1.400       .  A
C1285      H1293   1.083       .  S
C1286      H1294   1.084       .  S
C1287      C1288   1.206       .  T
C1289      C1290   1.206       .  T
C1295      C1303   1.436       .  S
C1295      C1296   1.400       .  A
C1295      C1300   1.401       .  A
C1296      C1297   1.398       .  A
C1296      H1305   1.084       .  S
C1297      C1298   1.402       .  A
C1297      H1306   1.083       .  S
C1298      C1301   1.435       .  S
C1298      C1299   1.400       .  A
C1299      C1300   1.396       .  A
C1299      H1307   1.083       .  S
C1300      H1308   1.083       .  S
C1301      C1302   1.203       .  T
C1303      C1304   1.203       .  T
C1309      C1317   1.439       .  S
C1309      C1310   1.402   1_455  A
C1309      C1314   1.401       .  A
C1310      C1311   1.398       .  A
C1310      H1319   1.083       .  S
C1311      C1312   1.401       .  A
C1311      H1320   1.084       .  S
C1312      C1315   1.439       .  S
C1312      C1313   1.402   1_655  A
C1313      C1314   1.399       .  A
C1313      H1321   1.083       .  S
C1314      H1322   1.084       .  S
C1315      C1316   1.205       .  T
C1317      C1318   1.205   1_556  T
C1323      C1331   1.440       .  S
C1323      C1324   1.403   1_655  A
C1323      C1328   1.400       .  A
C1324      C1325   1.400       .  A
C1324      H1333   1.084       .  S
C1325      C1326   1.401       .  A
C1325      H1334   1.083       .  S
C1326      C1329   1.441       .  S
C1326      C1327   1.402   1_455  A
C1327      C1328   1.398       .  A
C1327      H1335   1.084       .  S
C1328      H1336   1.083       .  S
C1329      C1330   1.206       .  T
C1331      C1332   1.206       .  T
C1337      C1345   1.433       .  S
C1337      C1338   1.399   1_455  A
C1337      C1342   1.401       .  A
C1338      C1339   1.397       .  A
C1338      H1347   1.083       .  S
C1339      C1340   1.402       .  A
C1339      H1348   1.084       .  S
C1340      C1343   1.434       .  S
C1340      C1341   1.399       .  A
C1341      C1342   1.396   1_655  A
C1341      H1349   1.083       .  S
C1342      H1350   1.084       .  S
C1343      C1344   1.203       .  T
C1345      C1346   1.202       .  T
C1351      C1359   1.444       .  S
C1351      C1352   1.402       .  A
C1351      C1356   1.402       .  A
C1352      C1353   1.401       .  A
C1352      H1361   1.084       .  S
C1353      C1354   1.402       .  A
C1353      H1362   1.083   1_554  S
C1354      C1357   1.444   1_554  S
C1354      C1355   1.402       .  A
C1355      C1356   1.400       .  A
C1355      H1363   1.084       .  S
C1356      H1364   1.083       .  S
C1357      C1358   1.208       .  T
C1359      C1360   1.208       .  T
C1365      C1373   1.442       .  S
C1365      C1366   1.401       .  A
C1365      C1370   1.403       .  A
C1366      C1367   1.400       .  A
C1366      H1375   1.084       .  S
C1367      C1368   1.403       .  A
C1367      H1376   1.083       .  S
C1368      C1371   1.441       .  S
C1368      C1369   1.400       .  A
C1369      C1370   1.399       .  A
C1369      H1377   1.084       .  S
C1370      H1378   1.083       .  S
C1371      C1372   1.207       .  T
C1373      C1374   1.207       .  T
C1379      C1387   1.437       .  S
C1379      C1380   1.403       .  A
C1379      C1384   1.399       .  A
C1380      C1381   1.397       .  A
C1380      H1389   1.083       .  S
C1381      C1382   1.398       .  A
C1381      H1390   1.084       .  S
C1382      C1385   1.435       .  S
C1382      C1383   1.402       .  A
C1383      C1384   1.398       .  A
C1383      H1391   1.083       .  S
C1384      H1392   1.084   1_554  S
C1385      C1386   1.203       .  T
C1387      C1388   1.204       .  T
C1393      C1401   1.436       .  S
C1393      C1394   1.400       .  A
C1393      C1398   1.401       .  A
C1394      C1395   1.398       .  A
C1394      H1403   1.083       .  S
C1395      C1396   1.401       .  A
C1395      H1404   1.084       .  S
C1396      C1399   1.437       .  S
C1396      C1397   1.400       .  A
C1397      C1398   1.398       .  A
C1397      H1405   1.083       .  S
C1398      H1406   1.084       .  S
C1399      C1400   1.204       .  T
C1401      C1402   1.204       .  T
C1407      C1415   1.440       .  S
C1407      C1408   1.401       .  A
C1407      C1412   1.402       .  A
C1408      C1409   1.399       .  A
C1408      H1417   1.083       .  S
C1409      C1410   1.402       .  A
C1409      H1418   1.083       .  S
C1410      C1413   1.440       .  S
C1410      C1411   1.400       .  A
C1411      C1412   1.399       .  A
C1411      H1419   1.084       .  S
C1412      H1420   1.083       .  S
C1413      C1414   1.206       .  T
C1415      C1416   1.206       .  T
C1421      C1429   1.436       .  S
C1421      C1422   1.400       .  A
C1421      C1426   1.402       .  A
C1422      C1423   1.397       .  A
C1422      H1431   1.084       .  S
C1423      C1424   1.402       .  A
C1423      H1432   1.083       .  S
C1424      C1427   1.438       .  S
C1424      C1425   1.400       .  A
C1425      C1426   1.398       .  A
C1425      H1433   1.084       .  S
C1426      H1434   1.084       .  S
C1427      C1428   1.205       .  T
C1429      C1430   1.204       .  T
C1435      C1443   1.440       .  S
C1435      C1436   1.402       .  A
C1435      C1440   1.401       .  A
C1436      C1437   1.400       .  A
C1436      H1445   1.083       .  S
C1437      C1438   1.401       .  A
C1437      H1446   1.084       .  S
C1438      C1441   1.440       .  S
C1438      C1439   1.402       .  A
C1439      C1440   1.399       .  A
C1439      H1447   1.083       .  S
C1440      H1448   1.084       .  S
C1441      C1442   1.206       .  T
C1443      C1444   1.206       .  T
C1449      C1457   1.446       .  S
C1449      C1450   1.402       .  A
C1449      C1454   1.403       .  A
C1450      C1451   1.401   1_565  A
C1450      H1459   1.084   1_565  S
C1451      C1452   1.402       .  A
C1451      H1460   1.083       .  S
C1452      C1455   1.444       .  S
C1452      C1453   1.402   1_545  A
C1453      C1454   1.401       .  A
C1453      H1461   1.083       .  S
C1454      H1462   1.084       .  S
C1455      C1456   1.208       .  T
C1457      C1458   1.210       .  T
C1463      C1471   1.439       .  S
C1463      C1464   1.401       .  A
C1463      C1468   1.401       .  A
C1464      C1465   1.399       .  A
C1464      H1473   1.084       .  S
C1465      C1466   1.401       .  A
C1465      H1474   1.083       .  S
C1466      C1469   1.439       .  S
C1466      C1467   1.401       .  A
C1467      C1468   1.399       .  A
C1467      H1475   1.084       .  S
C1468      H1476   1.083       .  S
C1469      C1470   1.206       .  T
C1471      C1472   1.206       .  T
