geometry optimzed in LAMMPS
_audit_creation_date              2020-12-01 
_audit_creation_method            'lammps2cif' 
_symmetry_space_group_name_H-M    'P1' 
_symmetry_Int_Tables_number       1 
_symmetry_cell_setting            triclinic 
loop_ 
_symmetry_equiv_pos_as_xyz 
  x,y,z 
_cell_length_a                    32.83614918 
_cell_length_b                    33.03172008319921 
_cell_length_c                    63.391463161955485 
_cell_angle_alpha                 89.95351105101102 
_cell_angle_beta                  90.00813377928672 
_cell_angle_gamma                 90.1070307238399 
loop_ 
_atom_site_label 
_atom_site_type_symbol 
_atom_site_fract_x 
_atom_site_fract_y 
_atom_site_fract_z 
_atom_site_charge 
In1        In  0.86440350  0.65467481  0.78582330     1.36900
C2          C  0.93014094  0.70096837  0.78474471     0.77100
O3          O  0.84152215  0.69012244  0.75813386    -0.61400
O4          O  0.80476465  0.68827392  0.78556289    -0.52300
C5          C  0.85899970  0.58268749  0.76672736     0.69700
O6          O  0.88511299  0.60895896  0.76184412    -0.47100
C7          C  0.86897250  0.63818584  0.82683837     0.74400
O8          O  0.92858717  0.66648922  0.77628780    -0.59000
O9          O  0.83703762  0.65196407  0.81844226    -0.49100
O10         O  0.89746647  0.71244042  0.79331047    -0.55400
C11         C  0.80936842  0.70161247  0.76708470     0.84600
O12         O  0.83463734  0.59372574  0.78095460    -0.57300
O13         O  0.89767822  0.63134756  0.81418419    -0.60600
In14       In  0.14591826  0.83935344  0.78753776     1.36900
C15         C  0.07890479  0.79398945  0.78586123     0.77100
O16         O  0.16861859  0.80371848  0.75970534    -0.61400
O17         O  0.20514467  0.80516866  0.78718822    -0.52300
C18         C  0.14722952  0.91283457  0.76977208     0.69700
O19         O  0.11519851  0.89520110  0.77557152    -0.47100
C20         C  0.15224069  0.85511063  0.82841768     0.74400
O21         O  0.09075724  0.81535477  0.77059377    -0.59000
O22         O  0.17726822  0.83279083  0.81882263    -0.49100
O23         O  0.10203754  0.79489433  0.80165557    -0.55400
C24         C  0.20100000  0.79237065  0.76858012     0.84600
O25         O  0.17925349  0.89306029  0.77345999    -0.57300
O26         O  0.12540893  0.87092819  0.81685929    -0.60600
In27       In  0.64236809  0.85708263  0.70630002     1.36900
C28         C  0.57923473  0.80736257  0.70905338     0.77100
O29         O  0.60770511  0.87204593  0.67665460    -0.61400
O30         O  0.67169939  0.87018744  0.67476884    -0.52300
C31         C  0.64561932  0.92840049  0.72583179     0.69700
O32         O  0.61745731  0.90310575  0.72861185    -0.47100
C33         C  0.69743694  0.81054110  0.72537475     0.74400
O34         O  0.57867351  0.84292363  0.71633215    -0.59000
O35         O  0.69990367  0.82001931  0.70614276    -0.49100
O36         O  0.61234724  0.79726349  0.70041307    -0.55400
C37         C  0.63859744  0.87507864  0.66501418     0.84600
O38         O  0.67287950  0.91706125  0.71319150    -0.57300
O39         O  0.66752297  0.82590033  0.73479135    -0.60600
In40       In  0.37713696  0.64786665  0.70691556     1.36900
C41         C  0.44099868  0.69812045  0.70920078     0.77100
O42         O  0.40083432  0.61452780  0.67855441    -0.61400
O43         O  0.35152631  0.65535755  0.67439921    -0.52300
C44         C  0.36891220  0.57522044  0.72504861     0.69700
O45         O  0.40317981  0.59124710  0.72158669    -0.47100
C46         C  0.32109997  0.69283316  0.72609065     0.74400
O47         O  0.43512831  0.67010542  0.72240140    -0.59000
O48         O  0.31685846  0.67979623  0.70751667    -0.49100
O49         O  0.41432933  0.69998623  0.69502013    -0.55400
C50         C  0.37674878  0.63170325  0.66591902     0.84600
O51         O  0.33900747  0.59601284  0.71895693    -0.57300
O52         O  0.35388858  0.68233134  0.73487071    -0.60600
In53       In  0.87388030  0.34938523  0.71297618     1.36900
C54         C  0.93774914  0.29962755  0.71492366     0.77100
O55         O  0.84240437  0.32432642  0.74166620    -0.61400
O56         O  0.81979745  0.30814672  0.71158916    -0.52300
C57         C  0.86622646  0.42241873  0.73016272     0.69700
O58         O  0.89510309  0.39878704  0.73466972    -0.47100
C59         C  0.87756869  0.37014904  0.67267042     0.74400
O60         O  0.93540898  0.33147782  0.72580497    -0.59000
O61         O  0.84696089  0.35243624  0.68043795    -0.49100
O62         O  0.90735633  0.29329594  0.70331381    -0.55400
C63         C  0.81667812  0.30426233  0.73128026     0.84600
O64         O  0.84085374  0.40843615  0.71710910    -0.57300
O65         O  0.90521857  0.37855684  0.68576603    -0.60600
In66       In  0.14012013  0.14239859  0.70999380     1.36900
C67         C  0.07648344  0.19176122  0.71257973     0.77100
O68         O  0.16660195  0.17127632  0.73904346    -0.61400
O69         O  0.19369623  0.18504652  0.70966131    -0.52300
C70         C  0.14325100  0.06991545  0.72870873     0.69700
O71         O  0.11096924  0.09019867  0.72701103    -0.47100
C72         C  0.14127525  0.12369468  0.66887722     0.74400
O73         O  0.08040876  0.16102607  0.72422808    -0.59000
O74         O  0.17321830  0.13088379  0.67930602    -0.49100
O75         O  0.10524139  0.19706137  0.69970716    -0.55400
C76         C  0.19360040  0.19087343  0.72930637     0.84600
O77         O  0.17408502  0.08654998  0.72059843    -0.57300
O78         O  0.10930910  0.12424239  0.67983988    -0.60600
In79       In  0.36132932  0.34975343  0.78823788     1.36900
C80         C  0.42524374  0.30103301  0.78421048     0.77100
O81         O  0.39526736  0.36795326  0.81728476    -0.61400
O82         O  0.33120163  0.36104131  0.81989328    -0.52300
C83         C  0.35900470  0.42178772  0.76907076     0.69700
O84         O  0.39095997  0.40122674  0.77120112    -0.47100
C85         C  0.30676854  0.30035673  0.77039476     0.74400
O86         O  0.41876606  0.33034127  0.77191528    -0.59000
O87         O  0.30823605  0.30638337  0.79001004    -0.49100
O88         O  0.39829607  0.29625596  0.79811788    -0.55400
C89         C  0.36457512  0.36772025  0.82916752     0.84600
O90         O  0.32790991  0.40615140  0.77750910    -0.57300
O91         O  0.33230427  0.32057669  0.75997470    -0.60600
In92       In  0.63643344  0.15520698  0.78726611     1.36900
C93         C  0.56998060  0.20103794  0.78400771     0.77100
O94         O  0.60247534  0.13678598  0.81628357    -0.61400
O95         O  0.66659858  0.14447843  0.81881864    -0.52300
C96         C  0.64078276  0.08372976  0.76795958     0.69700
O97         O  0.62064899  0.11314720  0.76090663    -0.47100
C98         C  0.69509647  0.20045374  0.76972823     0.74400
O99         O  0.57187188  0.16551832  0.77685771    -0.59000
O100        O  0.69021571  0.19780591  0.78940165    -0.49100
O101        O  0.60242002  0.21321364  0.79254544    -0.55400
C102        C  0.63337453  0.13693229  0.82808115     0.84600
O103        O  0.65908102  0.09107928  0.78501925    -0.57300
O104        O  0.67062486  0.17929081  0.75920574    -0.60600
In105      In  0.10640741  0.38409878  0.03527455     1.36900
C106        C  0.06203290  0.31750501  0.03077680     0.77100
O107        O  0.12471743  0.35305381  0.06528637    -0.61400
O108        O  0.11883139  0.41661585  0.06582886    -0.52300
C109        C  0.17773387  0.39393108  0.01638152     0.69700
O110        O  0.15867012  0.36083351  0.01645155    -0.47100
C111        C  0.05691378  0.43630247  0.01629485     0.74400
O112        O  0.09742760  0.32096768  0.02324198    -0.59000
O113        O  0.06121256  0.43488571  0.03604916    -0.49100
O114        O  0.04928210  0.34826023  0.04054739    -0.55400
C115        C  0.12689837  0.38495545  0.07604709     0.84600
O116        O  0.16052855  0.42211190  0.02629326    -0.57300
O117        O  0.07811748  0.41100998  0.00630902    -0.60600
In118      In  0.91329201  0.10901664  0.03214340     1.36900
C119        C  0.96234876  0.17323268  0.02830296     0.77100
O120        O  0.87870432  0.13606935  0.05908452    -0.61400
O121        O  0.92022318  0.08875459  0.06581529    -0.52300
C122        C  0.83899249  0.10357337  0.01536573     0.69700
O123        O  0.85906387  0.13607331  0.01617371    -0.47100
C124        C  0.95848813  0.05069317  0.01486421     0.74400
O125        O  0.93670787  0.16365096  0.01435396    -0.59000
O126        O  0.94573799  0.04892195  0.03360946    -0.49100
O127        O  0.96311384  0.14956318  0.04382674    -0.55400
C128        C  0.89542498  0.11445505  0.07297731     0.84600
O129        O  0.85725653  0.07317193  0.02281304    -0.57300
O130        O  0.94691650  0.08161662  0.00489460    -0.60600
In131      In  0.11201106  0.87463626  0.95870552     1.36900
C132        C  0.06351430  0.80973536  0.96006139     0.77100
O133        O  0.07488926  0.89847817  0.98569783    -0.61400
O134        O  0.07888564  0.93430737  0.95814857    -0.52300
C135        C  0.18341833  0.88119393  0.97834419     0.69700
O136        O  0.16615463  0.84763901  0.97511423    -0.47100
C137        C  0.13439965  0.87393028  0.91836319     0.74400
O138        O  0.08882809  0.81777010  0.97441837    -0.59000
O139        O  0.10698240  0.89710664  0.92529103    -0.49100
O140        O  0.06340930  0.83468460  0.94507835    -0.55400
C141        C  0.06435306  0.93058983  0.97647814     0.84600
O142        O  0.16405273  0.91154113  0.97163698    -0.57300
O143        O  0.15178250  0.85302919  0.93232720    -0.60600
In144      In  0.90497302  0.60788859  0.95722112     1.36900
C145        C  0.95579119  0.67066481  0.96026222     0.77100
O146        O  0.93287190  0.57798835  0.98552621    -0.61400
O147        O  0.94095909  0.55006741  0.95575480    -0.52300
C148        C  0.83214128  0.60380906  0.97574407     0.69700
O149        O  0.85930139  0.62873857  0.98101874    -0.47100
C150        C  0.88874983  0.61453990  0.91638273     0.74400
O151        O  0.92021101  0.67097580  0.96773107    -0.59000
O152        O  0.89873657  0.58126680  0.92466644    -0.49100
O153        O  0.96570620  0.63775348  0.95163759    -0.55400
C154        C  0.94872201  0.54953715  0.97521862     0.84600
O155        O  0.84206374  0.58063158  0.96082506    -0.57300
O156        O  0.88529374  0.64356525  0.92911630    -0.60600
In157      In  0.41108478  0.88757578  0.04061450     1.36900
C158        C  0.45814835  0.82276499  0.03650131     0.77100
O159        O  0.45113342  0.90995789  0.01436351    -0.61400
O160        O  0.43511484  0.95148766  0.03845167    -0.52300
C161        C  0.33888837  0.88943643  0.02120298     0.69700
O162        O  0.35891597  0.85753204  0.02420053    -0.47100
C163        C  0.39682729  0.88416570  0.08214572     0.74400
O164        O  0.42769837  0.82909549  0.02488092    -0.59000
O165        O  0.42172773  0.90883073  0.07413735    -0.49100
O166        O  0.46519548  0.85018451  0.04982378    -0.55400
C167        C  0.45449864  0.94529962  0.02157404     0.84600
O168        O  0.35539553  0.92087140  0.02863203    -0.57300
O169        O  0.37773338  0.86310914  0.06887565    -0.60600
In170      In  0.60599142  0.61430274  0.03844655     1.36900
C171        C  0.55723740  0.67834561  0.03571599     0.77100
O172        O  0.57644079  0.58639921  0.01008608    -0.61400
O173        O  0.56693124  0.55790697  0.03954020    -0.52300
C174        C  0.67720349  0.60786748  0.01876849     0.69700
O175        O  0.65319229  0.63698822  0.01589337    -0.47100
C176        C  0.62751057  0.62143846  0.07887896     0.74400
O177        O  0.58956887  0.67477964  0.02519621    -0.59000
O178        O  0.61290523  0.58908615  0.07141224    -0.49100
O179        O  0.54926838  0.64836627  0.04733151    -0.55400
C180        C  0.55940680  0.55811827  0.02002400     0.84600
O181        O  0.66499534  0.58187363  0.03193535    -0.57300
O182        O  0.63278868  0.64909341  0.06546310    -0.60600
In183      In  0.40731065  0.38709757  0.95974421     1.36900
C184        C  0.45494552  0.32273019  0.96506690     0.77100
O185        O  0.38088845  0.35586299  0.93168752    -0.61400
O186        O  0.40392655  0.41538095  0.92735497    -0.52300
C187        C  0.33382580  0.39610559  0.97605986     0.69700
O188        O  0.35076972  0.36210821  0.97430063    -0.47100
C189        C  0.45458435  0.44164292  0.97848625     0.74400
O190        O  0.42572850  0.33062190  0.97728755    -0.59000
O191        O  0.45039623  0.44002620  0.95870828    -0.49100
O192        O  0.45980052  0.34800707  0.95039546    -0.55400
C193        C  0.38813629  0.38437925  0.91904045     0.84600
O194        O  0.35435281  0.42575349  0.96943303    -0.57300
O195        O  0.43420543  0.41569446  0.98855006    -0.60600
In196      In  0.60448134  0.11657654  0.95991721     1.36900
C197        C  0.55672387  0.18056068  0.96517508     0.77100
O198        O  0.62628790  0.14768348  0.93060377    -0.61400
O199        O  0.60324963  0.08811422  0.92744227    -0.52300
C200        C  0.67877851  0.10964799  0.97719137     0.69700
O201        O  0.66207926  0.14303495  0.97325014    -0.47100
C202        C  0.55725078  0.06279247  0.97947569     0.74400
O203        O  0.58915044  0.17556865  0.97553300    -0.59000
O204        O  0.57115139  0.05710029  0.96114279    -0.49100
O205        O  0.54833687  0.15238826  0.95247060    -0.55400
C206        C  0.61738638  0.11906234  0.91837125     0.84600
O207        O  0.65764665  0.07945540  0.97194564    -0.57300
O208        O  0.56811475  0.09571149  0.98779775    -0.60600
In209      In  0.40906216  0.61324713  0.53488967     1.36900
C210        C  0.45657118  0.67820937  0.53151162     0.77100
O211        O  0.37677015  0.63781192  0.56303817    -0.61400
O212        O  0.41584926  0.58746100  0.56752898    -0.52300
C213        C  0.33538823  0.60936961  0.51785031     0.69700
O214        O  0.35385511  0.64220394  0.52102310    -0.47100
C215        C  0.45451426  0.55773300  0.51579022     0.74400
O216        O  0.42909965  0.67002530  0.51833709    -0.59000
O217        O  0.44426618  0.55506268  0.53490372    -0.49100
O218        O  0.46043907  0.65257385  0.54604723    -0.55400
C219        C  0.39315865  0.61371158  0.57586514     0.84600
O220        O  0.35434447  0.57808703  0.52366315    -0.57300
O221        O  0.44012768  0.58807438  0.50633371    -0.60600
In222      In  0.60207864  0.88882776  0.53286860     1.36900
C223        C  0.55446469  0.82377725  0.52965301     0.77100
O224        O  0.61863070  0.85773403  0.56330703    -0.61400
O225        O  0.61214893  0.92137742  0.56384349    -0.52300
C226        C  0.67565848  0.89110550  0.51453805     0.69700
O227        O  0.65114160  0.86205626  0.51247127    -0.47100
C228        C  0.55553324  0.94474722  0.51414891     0.74400
O229        O  0.58895328  0.82625450  0.52104883    -0.59000
O230        O  0.55888381  0.94130047  0.53382661    -0.49100
O231        O  0.54376859  0.85528630  0.53936564    -0.55400
C232        C  0.61900368  0.88956186  0.57422349     0.84600
O233        O  0.66259157  0.91932262  0.52608194    -0.57300
O234        O  0.57639855  0.91958518  0.50388332    -0.60600
In235      In  0.61325951  0.38945662  0.45845417     1.36900
C236        C  0.56416302  0.32516151  0.45896219     0.77100
O237        O  0.57981679  0.41336304  0.48659666    -0.61400
O238        O  0.57770608  0.44740172  0.45837525    -0.52300
C239        C  0.68399378  0.39567128  0.47837361     0.69700
O240        O  0.66256030  0.36398612  0.47855645    -0.47100
C241        C  0.63529276  0.38716753  0.41801510     0.74400
O242        O  0.59361190  0.32910095  0.47153381    -0.59000
O243        O  0.61002380  0.41242742  0.42511673    -0.49100
O244        O  0.56030108  0.35389703  0.44611943    -0.55400
C245        C  0.56601882  0.44399829  0.47722709     0.84600
O246        O  0.66900853  0.42483565  0.46808386    -0.57300
O247        O  0.65109195  0.36503900  0.43197997    -0.60600
In248      In  0.40494911  0.12376808  0.45842482     1.36900
C249        C  0.45440436  0.18785468  0.45951878     0.77100
O250        O  0.43247580  0.09265072  0.48657717    -0.61400
O251        O  0.44549226  0.06905560  0.45642507    -0.52300
C252        C  0.33335025  0.11581514  0.47752008     0.69700
O253        O  0.35897340  0.14253195  0.48264534    -0.47100
C254        C  0.38263116  0.12804443  0.41829381     0.74400
O255        O  0.42141767  0.18650238  0.46968287    -0.59000
O256        O  0.39957129  0.09715843  0.42603553    -0.49100
O257        O  0.46183967  0.15648106  0.44899426    -0.55400
C258        C  0.45114856  0.06629662  0.47601393     0.84600
O259        O  0.34454369  0.09272554  0.46279556    -0.57300
O260        O  0.37541314  0.15583384  0.43139272    -0.60600
In261      In  0.90785181  0.88633626  0.45649296     1.36900
C262        C  0.95381129  0.82008405  0.46097759     0.77100
O263        O  0.89714595  0.85463132  0.42581827    -0.61400
O264        O  0.89545915  0.91885278  0.42571452    -0.52300
C265        C  0.83469334  0.88809748  0.47480439     0.69700
O266        O  0.86376701  0.86716658  0.48179312    -0.47100
C267        C  0.95238920  0.94480974  0.47462687     0.74400
O268        O  0.91647784  0.82095336  0.46559969    -0.59000
O269        O  0.95451550  0.93689353  0.45524240    -0.49100
O270        O  0.96766975  0.85345557  0.45450957    -0.55400
C271        C  0.89374200  0.88657954  0.41511774     0.84600
O272        O  0.84294634  0.90805935  0.45837856    -0.57300
O273        O  0.92655897  0.92381187  0.48441684    -0.60600
In274      In  0.10611296  0.61343551  0.45829643     1.36900
C275        C  0.05600651  0.67664214  0.46123192     0.77100
O276        O  0.12672592  0.64217451  0.42821200    -0.61400
O277        O  0.11215769  0.57975922  0.42752190    -0.52300
C278        C  0.17949746  0.61130376  0.47613486     0.69700
O279        O  0.16092527  0.64382414  0.47243548    -0.47100
C280        C  0.05977481  0.55972877  0.47820971     0.74400
O281        O  0.08345007  0.66927022  0.47459601    -0.59000
O282        O  0.07003823  0.55549334  0.45917533    -0.49100
O283        O  0.05389907  0.65100802  0.44653485    -0.55400
C284        C  0.12341298  0.61052358  0.41724599     0.84600
O285        O  0.16106045  0.57989714  0.47021243    -0.57300
O286        O  0.07341520  0.59107823  0.48698604    -0.60600
In287      In  0.90979047  0.39208791  0.54186580     1.36900
C288        C  0.95473485  0.32470450  0.53943525     0.77100
O289        O  0.94935125  0.41056914  0.51486525    -0.61400
O290        O  0.93817123  0.45394187  0.53879181    -0.52300
C291        C  0.83809465  0.39660147  0.52252469     0.69700
O292        O  0.85302929  0.36387289  0.52919075    -0.47100
C293        C  0.89553919  0.39672790  0.58311786     0.74400
O294        O  0.92872950  0.33407974  0.52565588    -0.59000
O295        O  0.92511914  0.41443841  0.57437708    -0.49100
O296        O  0.95708077  0.34952934  0.55438687    -0.55400
C297        C  0.95579428  0.44583112  0.52161211     0.84600
O298        O  0.85930194  0.42749875  0.52655278    -0.57300
O299        O  0.87152581  0.37922568  0.57055880    -0.60600
In300      In  0.10357339  0.11598260  0.53710928     1.36900
C301        C  0.05645014  0.18153236  0.53577878     0.77100
O302        O  0.08109044  0.08423441  0.50775710    -0.61400
O303        O  0.05579544  0.06690524  0.53697939    -0.52300
C304        C  0.17585734  0.11271210  0.51813678     0.69700
O305        O  0.15079346  0.14100008  0.51511468    -0.47100
C306        C  0.12388066  0.11285077  0.57796218     0.74400
O307        O  0.09173300  0.18072204  0.52792376    -0.59000
O308        O  0.11531514  0.08172146  0.56730850    -0.49100
O309        O  0.04515034  0.14856884  0.54390103    -0.55400
C310        C  0.05602552  0.06184850  0.51729909     0.84600
O311        O  0.16383310  0.08580132  0.53084096    -0.57300
O312        O  0.12356288  0.14518000  0.56745351    -0.60600
In313      In  0.14781970  0.34792606  0.20594109     1.36900
C314        C  0.08207855  0.30110421  0.20684959     0.77100
O315        O  0.11690918  0.36603878  0.17615192    -0.61400
O316        O  0.18142007  0.36136386  0.17591754    -0.52300
C317        C  0.14846403  0.42017156  0.22412933     0.69700
O318        O  0.12433307  0.39230725  0.22944944    -0.47100
C319        C  0.20393885  0.30203643  0.22461705     0.74400
O320        O  0.08349754  0.33510688  0.21581652    -0.59000
O321        O  0.20008400  0.30412485  0.20489859    -0.49100
O322        O  0.11464637  0.29084460  0.19782309    -0.55400
C323        C  0.14932492  0.36831779  0.16559425     0.84600
O324        O  0.17319692  0.41067324  0.20976256    -0.57300
O325        O  0.17974497  0.32419856  0.23474688    -0.60600
In326      In  0.87330246  0.15219541  0.20359111     1.36900
C327        C  0.93814532  0.20031525  0.20438060     0.77100
O328        O  0.89600641  0.11934260  0.17511836    -0.61400
O329        O  0.84633193  0.15972074  0.17121660    -0.52300
C330        C  0.87047594  0.07916264  0.22132992     0.69700
O331        O  0.90327709  0.09784987  0.21792692    -0.47100
C332        C  0.81947705  0.19690261  0.22471423     0.74400
O333        O  0.93193944  0.17310725  0.21796770    -0.59000
O334        O  0.81212826  0.18214544  0.20674940    -0.49100
O335        O  0.91063143  0.20331532  0.19065828    -0.55400
C336        C  0.87158547  0.13622157  0.16258225     0.84600
O337        O  0.83887660  0.09769736  0.21547979    -0.57300
O338        O  0.85409216  0.18811590  0.23193917    -0.60600
In339      In  0.37291566  0.15140678  0.28682591     1.36900
C340        C  0.43752334  0.19932280  0.28272254     0.77100
O341        O  0.34680297  0.17592650  0.25659257    -0.61400
O342        O  0.32078086  0.19450855  0.28560130    -0.52300
C343        C  0.37096123  0.07663593  0.27086545     0.69700
O344        O  0.40347105  0.09456126  0.27579944    -0.47100
C345        C  0.36719804  0.13930097  0.32817309     0.74400
O346        O  0.43483111  0.16548874  0.27357894    -0.59000
O347        O  0.33608841  0.14087127  0.31656857    -0.49100
O348        O  0.40656796  0.20912406  0.29326915    -0.55400
C349        C  0.32016362  0.19698769  0.26575734     0.84600
O350        O  0.33918374  0.09672143  0.27458427    -0.57300
O351        O  0.40054451  0.14171062  0.31853418    -0.60600
In352      In  0.64809812  0.34692418  0.28674559     1.36900
C353        C  0.58195782  0.29993219  0.28440159     0.77100
O354        O  0.66930595  0.30820277  0.25986438    -0.61400
O355        O  0.70931850  0.31596788  0.28570392    -0.52300
C356        C  0.65207413  0.41819197  0.26702007     0.69700
O357        O  0.61908335  0.40192135  0.27254091    -0.47100
C358        C  0.65224616  0.36482831  0.32775282     0.74400
O359        O  0.59094193  0.32567945  0.27049458    -0.59000
O360        O  0.67728926  0.34175740  0.31870560    -0.49100
O361        O  0.60702045  0.29809698  0.29941078    -0.55400
C362        C  0.70331267  0.29983620  0.26794377     0.84600
O363        O  0.68332389  0.39834473  0.27203350    -0.57300
O364        O  0.62620039  0.38028156  0.31557864    -0.60600
In365      In  0.37518563  0.84499655  0.21367173     1.36900
C366        C  0.44017953  0.79818247  0.21776642     0.77100
O367        O  0.35310218  0.80371857  0.23944450    -0.61400
O368        O  0.31200816  0.81862786  0.21489983    -0.52300
C369        C  0.37083070  0.91746747  0.23229051     0.69700
O370        O  0.40325199  0.89745825  0.23069371    -0.47100
C371        C  0.37857878  0.86004117  0.17219851     0.74400
O372        O  0.43297008  0.82715639  0.23013431    -0.59000
O373        O  0.35393885  0.83511071  0.18020257    -0.49100
O374        O  0.41397894  0.79301731  0.20351327    -0.55400
C375        C  0.31824365  0.79877350  0.23158441     0.84600
O376        O  0.33996191  0.90015985  0.22457568    -0.57300
O377        O  0.40046653  0.87833266  0.18545226    -0.60600
In378      In  0.64700495  0.64947342  0.21063757     1.36900
C379        C  0.58330472  0.69753341  0.21694028     0.77100
O380        O  0.67404912  0.67451465  0.24053479    -0.61400
O381        O  0.70293609  0.68861405  0.21157102    -0.52300
C382        C  0.65078217  0.57414461  0.22554494     0.69700
O383        O  0.61775914  0.59283842  0.22311846    -0.47100
C384        C  0.64708614  0.63894674  0.16893662     0.74400
O385        O  0.58898963  0.66561900  0.22745004    -0.59000
O386        O  0.67912604  0.64679576  0.17910472    -0.49100
O387        O  0.61087246  0.70523647  0.20370004    -0.55400
C388        C  0.70258540  0.69293593  0.23131909     0.84600
O389        O  0.68182756  0.59352092  0.21965306    -0.57300
O390        O  0.61564236  0.63503414  0.18011289    -0.60600
In391      In  0.87597759  0.85286508  0.28395038     1.36900
C392        C  0.93805458  0.80197087  0.28038423     0.77100
O393        O  0.90883280  0.87808042  0.31195102    -0.61400
O394        O  0.84734798  0.85983836  0.31602281    -0.52300
C395        C  0.87249557  0.92440013  0.26432092     0.69700
O396        O  0.90525080  0.90569698  0.26760534    -0.47100
C397        C  0.81957526  0.80253491  0.26872083     0.74400
O398        O  0.92949815  0.82730698  0.26617989    -0.59000
O399        O  0.82028462  0.81370710  0.28771326    -0.49100
O400        O  0.91490283  0.80305264  0.29615705    -0.55400
C401        C  0.87960718  0.87273952  0.32454140     0.84600
O402        O  0.84133486  0.90669542  0.27142624    -0.57300
O403        O  0.84680140  0.81843520  0.25739808    -0.60600
In404      In  0.13944828  0.64615435  0.28567940     1.36900
C405        C  0.07496798  0.69326937  0.28265699     0.77100
O406        O  0.10636967  0.63284206  0.31592618    -0.61400
O407        O  0.17066205  0.63552236  0.31671757    -0.52300
C408        C  0.14228617  0.57536537  0.26562560     0.69700
O409        O  0.12004515  0.60410630  0.25972686    -0.47100
C410        C  0.19752506  0.69186352  0.26828417     0.74400
O411        O  0.07470501  0.65680293  0.27670372    -0.59000
O412        O  0.20109783  0.67581507  0.28619613    -0.49100
O413        O  0.10810750  0.70523037  0.29067970    -0.55400
C414        C  0.13821329  0.63014694  0.32693359     0.84600
O415        O  0.16297584  0.58275294  0.28183704    -0.57300
O416        O  0.16456589  0.68368145  0.25918340    -0.60600
C417        C  0.96705710  0.73300032  0.28607989    -0.02400
C418        C  0.97235574  0.77325860  0.27901561     0.07300
C419        C  0.01091006  0.78618921  0.27175714    -0.02500
C420        C  0.04412818  0.75935502  0.27218240    -0.02500
C421        C  0.03929765  0.71998038  0.28046863     0.07500
C422        C  0.00049042  0.70655625  0.28696547    -0.02700
Br423      Br  0.99307937  0.65257217  0.29813916    -0.01200
Br424      Br  0.91376014  0.71327310  0.29412935    -0.01300
Br425      Br  0.09586626  0.77605099  0.26044240    -0.01300
Br426      Br  0.01948900  0.84134074  0.26254361    -0.01200
C427        C  0.77459988  0.71433142  0.23798211    -0.02400
C428        C  0.73277849  0.71831158  0.24256576     0.07300
C429        C  0.71986136  0.74788849  0.25715592    -0.02500
C430        C  0.74821605  0.77518294  0.26593327    -0.02500
C431        C  0.78981380  0.77274909  0.26036995     0.07500
C432        C  0.80301226  0.74144975  0.24681045    -0.02700
Br433      Br  0.86032316  0.73401350  0.24104518    -0.01200
Br434      Br  0.79335809  0.66997432  0.22067091    -0.01300
Br435      Br  0.72918448  0.81740458  0.28453647    -0.01300
Br436      Br  0.66299320  0.75251621  0.26454806    -0.01200
C437        C  0.26690077  0.74295831  0.22821431    -0.02400
C438        C  0.28749623  0.77136061  0.24098738     0.07300
C439        C  0.27902664  0.77305359  0.26278707    -0.02500
C440        C  0.24996152  0.74679562  0.27174668    -0.02500
C441        C  0.22889925  0.71869951  0.25892646     0.07500
C442        C  0.23727918  0.71713883  0.23705134    -0.02700
Br443      Br  0.20938872  0.67886792  0.21899377    -0.01200
Br444      Br  0.28110162  0.73727280  0.19877075    -0.01300
Br445      Br  0.23726936  0.75185536  0.30143966    -0.01300
Br446      Br  0.30546462  0.81293697  0.28036547    -0.01200
C447        C  0.55060011  0.76591298  0.21904392    -0.02400
C448        C  0.54676108  0.72329035  0.21929843     0.07300
C449        C  0.50758153  0.70549396  0.22025574    -0.02500
C450        C  0.47266865  0.73015420  0.22030917    -0.02500
C451        C  0.47667818  0.77258989  0.21950315     0.07500
C452        C  0.51564078  0.79044957  0.21913412    -0.02700
Br453      Br  0.52118636  0.84856724  0.21699536    -0.01200
Br454      Br  0.60365402  0.79124153  0.21866341    -0.01300
Br455      Br  0.41911982  0.70577848  0.22147078    -0.01300
Br456      Br  0.50094066  0.64735488  0.21978276    -0.01200
C457        C  0.68147769  0.48767803  0.26165570    -0.02400
C458        C  0.65361402  0.45724568  0.25555873     0.07300
C459        C  0.62629399  0.46465293  0.23876693    -0.02500
C460        C  0.62586428  0.50263005  0.22866827    -0.02500
C461        C  0.65290234  0.53341924  0.23518489     0.07500
C462        C  0.68088200  0.52573020  0.25162141    -0.02700
Br463      Br  0.71622776  0.56834871  0.26178255    -0.01200
Br464      Br  0.71905251  0.47850968  0.28462280    -0.01300
Br465      Br  0.58897477  0.51181476  0.20539063    -0.01300
Br466      Br  0.59069419  0.42216863  0.22867676    -0.01200
C467        C  0.39846394  0.02647083  0.24488447    -0.02400
C468        C  0.37036692  0.03587049  0.26103047     0.07300
C469        C  0.34183703  0.00628034  0.26753074    -0.02500
C470        C  0.34153648  0.96766929  0.25800157    -0.02500
C471        C  0.36985103  0.95828669  0.24198802     0.07500
C472        C  0.39832558  0.98784454  0.23552092    -0.02700
Br473      Br  0.43638686  0.97619956  0.21308082    -0.01200
Br474      Br  0.43600310  0.06706371  0.23453839    -0.01300
Br475      Br  0.30406005  0.92684790  0.26797027    -0.01300
Br476      Br  0.30467827  0.01741791  0.29042439    -0.01200
C477        C  0.50700364  0.29096135  0.27781490    -0.02400
C478        C  0.54510460  0.27403630  0.28326491     0.07300
C479        C  0.54767320  0.23233941  0.28804897    -0.02500
C480        C  0.51259917  0.20781975  0.28735893    -0.02500
C481        C  0.47457955  0.22476834  0.28201852     0.07500
C482        C  0.47186045  0.26641917  0.27731476    -0.02700
Br483      Br  0.42002173  0.28998122  0.26987544    -0.01200
Br484      Br  0.50198813  0.34830560  0.27232924    -0.01300
Br485      Br  0.51643416  0.15138630  0.29518477    -0.01300
Br486      Br  0.59929301  0.20805269  0.29524829    -0.01200
C487        C  0.84532549  0.03297956  0.24981692    -0.02400
C488        C  0.86941327  0.03905794  0.23168342     0.07300
C489        C  0.89390444  0.00729264  0.22402310    -0.02500
C490        C  0.89498175  0.96986584  0.23467780    -0.02500
C491        C  0.87098330  0.96369398  0.25294929     0.07500
C492        C  0.84592392  0.99541107  0.26037061    -0.02700
Br493      Br  0.81440492  0.98885536  0.28587182    -0.01200
Br494      Br  0.81360242  0.07713791  0.26113536    -0.01300
Br495      Br  0.92848539  0.92683031  0.22349648    -0.01300
Br496      Br  0.92462977  0.01434546  0.19827414    -0.01200
C497        C  0.80321301  0.25888940  0.24609879    -0.02400
C498        C  0.79007470  0.22271758  0.23629296     0.07300
C499        C  0.74859932  0.21165820  0.23731819    -0.02500
C500        C  0.72037647  0.23687082  0.24763311    -0.02500
C501        C  0.73339605  0.27311383  0.25739477     0.07500
C502        C  0.77503806  0.28389841  0.25666146    -0.02700
Br503      Br  0.79344663  0.33445697  0.26871892    -0.01200
Br504      Br  0.85940906  0.27595156  0.24397019    -0.01300
Br505      Br  0.66394870  0.22050152  0.24886641    -0.01300
Br506      Br  0.73039093  0.16073454  0.22561068    -0.01200
C507        C  0.10938776  0.47962685  0.23752504    -0.02400
C508        C  0.14728688  0.46072147  0.23388487     0.07300
C509        C  0.18362883  0.48040471  0.23996966    -0.02500
C510        C  0.18198454  0.51855023  0.24978404    -0.02500
C511        C  0.14399869  0.53630621  0.25445082     0.07500
C512        C  0.10769332  0.51666217  0.24837675    -0.02700
Br513      Br  0.05533236  0.53889420  0.25606898    -0.01200
Br514      Br  0.05966524  0.45631711  0.22653618    -0.01300
Br515      Br  0.23197028  0.54724959  0.25589423    -0.01300
Br516      Br  0.23580091  0.45459845  0.23596269    -0.01200
C517        C  0.22128510  0.24950997  0.25159158    -0.02400
C518        C  0.23377825  0.27513743  0.23498499     0.07300
C519        C  0.27452989  0.27416229  0.22798173    -0.02500
C520        C  0.30257131  0.24739948  0.23737108    -0.02500
C521        C  0.29031489  0.22253044  0.25440509     0.07500
C522        C  0.24938343  0.22327055  0.26121917    -0.02700
Br523      Br  0.23066646  0.18626955  0.28282723    -0.01200
Br524      Br  0.16523751  0.24895074  0.26083758    -0.01300
Br525      Br  0.35789348  0.24615962  0.22705609    -0.01300
Br526      Br  0.29291253  0.31196588  0.20670673    -0.01200
C527        C  0.00691165  0.29284088  0.20153803    -0.02400
C528        C  0.04509124  0.27560816  0.20647641     0.07300
C529        C  0.04810009  0.23358387  0.21009973    -0.02500
C530        C  0.01327086  0.20892468  0.20884305    -0.02500
C531        C  0.97489558  0.22621928  0.20447611     0.07500
C532        C  0.97198262  0.26816179  0.20031673    -0.02700
Br533      Br  0.92035470  0.29245594  0.19294622    -0.01200
Br534      Br  0.00227411  0.35009327  0.19557483    -0.01300
Br535      Br  0.01917943  0.15087815  0.21139308    -0.01300
Br536      Br  0.09958498  0.20954891  0.21781028    -0.01200
C537        C  0.96429204  0.25066114  0.53146315    -0.02400
C538        C  0.98077442  0.28807134  0.53815399     0.07300
C539        C  0.02237079  0.29026514  0.54390704    -0.02500
C540        C  0.04719225  0.25561136  0.54275725    -0.02500
C541        C  0.03072167  0.21832656  0.53599701     0.07500
C542        C  0.98918946  0.21599325  0.53034634    -0.02700
Br543      Br  0.96640423  0.16549243  0.52041106    -0.01200
Br544      Br  0.90691123  0.24572734  0.52516904    -0.01300
Br545      Br  0.10341840  0.25912519  0.55167040    -0.01300
Br546      Br  0.04630582  0.34078141  0.55311716    -0.01200
C547        C  0.16454238  0.64171650  0.36373484    -0.02400
C548        C  0.13734766  0.62168971  0.34993155     0.07300
C549        C  0.10870589  0.59400383  0.35828127    -0.02500
C550        C  0.10498016  0.58891318  0.38028223    -0.02500
C551        C  0.13083920  0.61057080  0.39412865     0.07500
C552        C  0.16198645  0.63522933  0.38565113    -0.02700
Br553      Br  0.20276366  0.65876635  0.40395858    -0.01200
Br554      Br  0.20365325  0.68055355  0.35314329    -0.01300
Br555      Br  0.06285290  0.55357779  0.39105650    -0.01300
Br556      Br  0.07518247  0.56174238  0.33961792    -0.01200
C557        C  0.02009530  0.46221677  0.50202625    -0.02400
C558        C  0.98224867  0.47496168  0.51031992     0.07300
C559        C  0.96996583  0.51561858  0.50778856    -0.02500
C560        C  0.99600811  0.54358437  0.49783551    -0.02500
C561        C  0.03342449  0.53064934  0.48935114     0.07500
C562        C  0.04553652  0.49002085  0.49153547    -0.02700
Br563      Br  0.09837612  0.47313700  0.48148346    -0.01200
Br564      Br  0.03823924  0.40703457  0.50552117    -0.01300
Br565      Br  0.98002938  0.59962483  0.49549527    -0.01300
Br566      Br  0.91601417  0.53249086  0.51607234    -0.01200
C567        C  0.92142222  0.86632322  0.38022288    -0.02400
C568        C  0.89058096  0.88568320  0.39188267     0.07300
C569        C  0.85688524  0.90263743  0.38132720    -0.02500
C570        C  0.85372842  0.89954627  0.35917827    -0.02500
C571        C  0.88381511  0.87868122  0.34759211     0.07500
C572        C  0.91763158  0.86190881  0.35826082    -0.02700
Br573      Br  0.95751358  0.82986356  0.34331676    -0.01200
Br574      Br  0.97000121  0.84722889  0.39430591    -0.01300
Br575      Br  0.80885583  0.92499078  0.34468356    -0.01300
Br576      Br  0.81421153  0.92843328  0.39726296    -0.01200
C577        C  0.99733600  0.96513549  0.50475419    -0.02400
C578        C  0.97881641  0.97502959  0.48531974     0.07300
C579        C  0.98578023  0.01358041  0.47633211    -0.02500
C580        C  0.01058347  0.04210945  0.48686688    -0.02500
C581        C  0.02922392  0.03215089  0.50632423     0.07500
C582        C  0.02217231  0.99351572  0.51525010    -0.02700
Br583      Br  0.04781503  0.97807501  0.54148739    -0.01200
Br584      Br  0.99118648  0.91143967  0.51655085    -0.01300
Br585      Br  0.01634902  0.09586716  0.47514331    -0.01300
Br586      Br  0.95995420  0.02829271  0.45002190    -0.01200
C587        C  0.96329211  0.74519800  0.45560082    -0.02400
C588        C  0.97908306  0.78285774  0.46238173     0.07300
C589        C  0.01971914  0.78503772  0.46964282    -0.02500
C590        C  0.04464496  0.75032888  0.46956599    -0.02500
C591        C  0.02908927  0.71277223  0.46240139     0.07500
C592        C  0.98804673  0.71036462  0.45570652    -0.02700
Br593      Br  0.96466200  0.65924056  0.44700340    -0.01200
Br594      Br  0.90837460  0.74115636  0.44476740    -0.01300
Br595      Br  0.10098091  0.75567791  0.47813871    -0.01300
Br596      Br  0.04152596  0.83539304  0.48033461    -0.01200
C597        C  0.38529713  0.16811787  0.38484770    -0.02400
C598        C  0.37397741  0.13220466  0.39550383     0.07300
C599        C  0.35675982  0.09973513  0.38400889    -0.02500
C600        C  0.35217291  0.10274366  0.36195074    -0.02500
C601        C  0.36561379  0.13771254  0.35134135     0.07500
C602        C  0.38110956  0.17073253  0.36284441    -0.02700
Br603      Br  0.39661166  0.21985993  0.34826709    -0.01200
Br604      Br  0.40992176  0.21289463  0.39979836    -0.01300
Br605      Br  0.32900348  0.05852004  0.34614059    -0.01300
Br606      Br  0.33923242  0.05113745  0.39834482    -0.01200
C607        C  0.21900052  0.11692121  0.48558462    -0.02400
C608        C  0.21611432  0.11146747  0.50763461     0.07300
C609        C  0.25192155  0.10594109  0.51963734    -0.02500
C610        C  0.29030386  0.10667366  0.50971117    -0.02500
C611        C  0.29309511  0.11251013  0.48773971     0.07500
C612        C  0.25736456  0.11696330  0.47564774    -0.02700
Br613      Br  0.26105097  0.12498254  0.44551957    -0.01200
Br614      Br  0.17041440  0.12379937  0.46879412    -0.01300
Br615      Br  0.33917544  0.09867967  0.52614467    -0.01300
Br616      Br  0.24890424  0.09999648  0.54988437    -0.01200
C617        C  0.64307543  0.41603133  0.38134918    -0.02400
C618        C  0.64373561  0.38224233  0.39509506     0.07300
C619        C  0.64966427  0.34304095  0.38657157    -0.02500
C620        C  0.65395262  0.33774491  0.36463968    -0.02500
C621        C  0.65188615  0.37134384  0.35090459     0.07500
C622        C  0.64691020  0.41053306  0.35936443    -0.02700
Br623      Br  0.64652475  0.45707333  0.34088712    -0.01200
Br624      Br  0.63805309  0.47033036  0.39241418    -0.01300
Br625      Br  0.65917998  0.28352326  0.35343386    -0.01300
Br626      Br  0.64835857  0.29537525  0.40438155    -0.01200
C627        C  0.73277133  0.42859159  0.50360517    -0.02400
C628        C  0.72396321  0.39760627  0.48900557     0.07300
C629        C  0.75317613  0.36746145  0.48484218    -0.02500
C630        C  0.79078704  0.36783150  0.49543068    -0.02500
C631        C  0.79931611  0.39809245  0.51057327     0.07500
C632        C  0.77050552  0.42909662  0.51424501    -0.02700
Br633      Br  0.78149885  0.47152553  0.53443708    -0.01200
Br634      Br  0.69190709  0.46856257  0.51028362    -0.01300
Br635      Br  0.83147265  0.32810968  0.48788165    -0.01300
Br636      Br  0.74227758  0.32613667  0.46398605    -0.01200
C637        C  0.49369498  0.29612787  0.45735325    -0.02400
C638        C  0.53612637  0.29006095  0.45930705     0.07300
C639        C  0.55151734  0.25039816  0.46143202    -0.02500
C640        C  0.52468822  0.21711851  0.46184705    -0.02500
C641        C  0.48227407  0.22313815  0.45980722     0.07500
C642        C  0.46691927  0.26278757  0.45747870    -0.02700
Br643      Br  0.40935451  0.27183756  0.45331515    -0.01200
Br644      Br  0.47158658  0.35023283  0.45524755    -0.01300
Br645      Br  0.54638348  0.16335674  0.46608761    -0.01300
Br646      Br  0.60957084  0.24097090  0.46260131    -0.01200
C647        C  0.72031746  0.88073765  0.48279264    -0.02400
C648        C  0.71635293  0.89156509  0.50427425     0.07300
C649        C  0.75162372  0.90119311  0.51604205    -0.02500
C650        C  0.79037879  0.89973315  0.50646202    -0.02500
C651        C  0.79415674  0.88906461  0.48500775     0.07500
C652        C  0.75907001  0.87927007  0.47326709    -0.02700
Br653      Br  0.76440621  0.86119425  0.44442308    -0.01200
Br654      Br  0.67264335  0.86948840  0.46592903    -0.01300
Br655      Br  0.83833009  0.91305708  0.52271759    -0.01300
Br656      Br  0.74740618  0.91458386  0.54559501    -0.01200
C657        C  0.50389655  0.96564433  0.48689497    -0.02400
C658        C  0.52925922  0.97579824  0.50410775     0.07300
C659        C  0.52864027  0.01565819  0.51215341    -0.02500
C660        C  0.50283232  0.04502137  0.50317752    -0.02500
C661        C  0.47776247  0.03507241  0.48576991     0.07500
C662        C  0.47850678  0.99516514  0.47766916    -0.02700
Br663      Br  0.44288292  0.97963550  0.45474244    -0.01200
Br664      Br  0.50139673  0.91053170  0.47672878    -0.01300
Br665      Br  0.50365879  0.09933683  0.51455135    -0.01300
Br666      Br  0.56472080  0.03107685  0.53491877    -0.01200
C667        C  0.25231892  0.58939001  0.47778993    -0.02400
C668        C  0.21922838  0.61007252  0.48695251     0.07300
C669        C  0.22404382  0.62946072  0.50661867    -0.02500
C670        C  0.26203410  0.62883878  0.51687272    -0.02500
C671        C  0.29506133  0.60808662  0.50772378     0.07500
C672        C  0.29013645  0.58822025  0.48822862    -0.02700
Br673      Br  0.33601483  0.56174863  0.47514973    -0.01200
Br674      Br  0.24669620  0.56497288  0.45028512    -0.01300
Br675      Br  0.26854524  0.65556393  0.54375743    -0.01300
Br676      Br  0.17807093  0.65514806  0.52008378    -0.01200
C677        C  0.47825243  0.48655994  0.50947166    -0.02400
C678        C  0.48225234  0.52844495  0.50551138     0.07300
C679        C  0.51401027  0.54248111  0.49233920    -0.02500
C680        C  0.54163032  0.51494512  0.48331722    -0.02500
C681        C  0.53780484  0.47306161  0.48735620     0.07500
C682        C  0.50620329  0.45901920  0.50068230    -0.02700
Br683      Br  0.49974775  0.40188538  0.50659508    -0.01200
Br684      Br  0.43283276  0.46624364  0.52578818    -0.01300
Br685      Br  0.58650404  0.53543381  0.46665045    -0.01300
Br686      Br  0.52154579  0.59975987  0.48734534    -0.01200
C687        C  0.52429303  0.71284474  0.53254990    -0.02400
C688        C  0.48167094  0.71521441  0.53032565     0.07300
C689        C  0.46286758  0.75322743  0.52764014    -0.02500
C690        C  0.48669169  0.78865720  0.52666292    -0.02500
C691        C  0.52941176  0.78644341  0.52915498     0.07500
C692        C  0.54806934  0.74830187  0.53217688    -0.02700
Br693      Br  0.60596945  0.74412845  0.53726659    -0.01200
Br694      Br  0.55053531  0.66088254  0.53581575    -0.01300
Br695      Br  0.46036572  0.83982131  0.52111332    -0.01300
Br696      Br  0.40412112  0.75727160  0.52701133    -0.01200
C697        C  0.48902438  0.21335658  0.97111500    -0.02400
C698        C  0.53113736  0.21704529  0.96721493     0.07300
C699        C  0.54851706  0.25566655  0.96422405    -0.02500
C700        C  0.52378101  0.29037933  0.96463410    -0.02500
C701        C  0.48125014  0.28662601  0.96734843     0.07500
C702        C  0.46400574  0.24798308  0.97093861    -0.02700
Br703      Br  0.40584095  0.24164408  0.97415448    -0.01200
Br704      Br  0.46576198  0.16084568  0.97718579    -0.01300
Br705      Br  0.54870515  0.34319205  0.96206351    -0.01300
Br706      Br  0.60585345  0.26101674  0.95796449    -0.01200
C707        C  0.66403057  0.60338001  0.13515683    -0.02400
C708        C  0.64566951  0.63607151  0.14571642     0.07300
C709        C  0.62423577  0.66554403  0.13413941    -0.02500
C710        C  0.61975375  0.66156913  0.11215274    -0.02500
C711        C  0.63581233  0.62735838  0.10166784     0.07500
C712        C  0.65856395  0.59861735  0.11321396    -0.02700
Br713      Br  0.68341979  0.55343074  0.09894380    -0.01200
Br714      Br  0.69593232  0.56481930  0.15092418    -0.01300
Br715      Br  0.58981497  0.70240532  0.09676827    -0.01300
Br716      Br  0.60156490  0.71192789  0.14848164    -0.01200
C717        C  0.50346056  0.54124059  0.99451317    -0.02400
C718        C  0.53242345  0.52818386  0.00956630     0.07300
C719        C  0.53550936  0.48656677  0.01438587    -0.02500
C720        C  0.50955923  0.45837936  0.00447757    -0.02500
C721        C  0.48134466  0.47138788  0.98909760     0.07500
C722        C  0.47850438  0.51287617  0.98409470    -0.02700
Br723      Br  0.43867230  0.53141018  0.96383046    -0.01200
Br724      Br  0.49567236  0.59825266  0.98900449    -0.01300
Br725      Br  0.51397263  0.40160841  0.01149268    -0.01300
Br726      Br  0.57699946  0.46741266  0.03353234    -0.01200
C727        C  0.37941177  0.90567578  0.14047897    -0.02400
C728        C  0.38242860  0.86641489  0.14913460     0.07300
C729        C  0.39051104  0.83325822  0.13573752    -0.02500
C730        C  0.39642879  0.83950160  0.11396463    -0.02500
C731        C  0.39189643  0.87851791  0.10519346     0.07500
C732        C  0.38329006  0.91158767  0.11851401    -0.02700
Br733      Br  0.37482500  0.96462772  0.10657883    -0.01200
Br734      Br  0.36830503  0.95120428  0.15863088    -0.01300
Br735      Br  0.41435695  0.79507201  0.09643821    -0.01300
Br736      Br  0.39537884  0.77928833  0.14721445    -0.01200
C737        C  0.47263258  0.98642132  0.98975740    -0.02400
C738        C  0.47959336  0.97663791  0.01111225     0.07300
C739        C  0.51156986  0.99568598  0.02216247    -0.02500
C740        C  0.53709081  0.02368803  0.01180281    -0.02500
C741        C  0.53036837  0.03332338  0.99035036     0.07500
C742        C  0.49766374  0.01494433  0.97945711    -0.02700
Br743      Br  0.48531772  0.03037639  0.95075030    -0.01200
Br744      Br  0.42754017  0.96198309  0.97486005    -0.01300
Br745      Br  0.58286068  0.04670653  0.02679499    -0.01300
Br746      Br  0.52203017  0.98171724  0.05124785    -0.01200
C747        C  0.52581551  0.78898517  0.03349630    -0.02400
C748        C  0.48315301  0.78584407  0.03496724     0.07300
C749        C  0.46454821  0.74737794  0.03581024    -0.02500
C750        C  0.48859474  0.71212736  0.03556741    -0.02500
C751        C  0.53155934  0.71518916  0.03488858     0.07500
C752        C  0.55002316  0.75390032  0.03379128    -0.02700
Br753      Br  0.60862057  0.75988336  0.03406439    -0.01200
Br754      Br  0.55110744  0.84148018  0.03014515    -0.01300
Br755      Br  0.46196895  0.65991868  0.03543895    -0.01300
Br756      Br  0.40604790  0.74280626  0.03839808    -0.01200
C757        C  0.75572567  0.60568839  0.97481853    -0.02400
C758        C  0.79218312  0.60212654  0.98645800     0.07300
C759        C  0.79058924  0.59932634  0.00865436    -0.02500
C760        C  0.75293037  0.60070147  0.01920107    -0.02500
C761        C  0.71655755  0.60482911  0.00762168     0.07500
C762        C  0.71801443  0.60745765  0.98540021    -0.02700
Br763      Br  0.66829072  0.61338790  0.96938317    -0.01200
Br764      Br  0.75735350  0.61037777  0.94446336    -0.01300
Br765      Br  0.75158361  0.60014809  0.04965696    -0.01300
Br766      Br  0.84004047  0.59272544  0.02473054    -0.01200
C767        C  0.22753725  0.90795670  0.00743554    -0.02400
C768        C  0.22336346  0.88453366  0.98897621     0.07300
C769        C  0.25740488  0.86400868  0.98072711    -0.02500
C770        C  0.29539552  0.86664718  0.99095172    -0.02500
C771        C  0.29950042  0.88936790  0.00973391     0.07500
C772        C  0.26547555  0.91039321  0.01780766    -0.02700
Br773      Br  0.26984041  0.94055776  0.04378052    -0.01200
Br774      Br  0.18048879  0.93448975  0.01931898    -0.01300
Br775      Br  0.34225418  0.84071863  0.97840096    -0.01300
Br776      Br  0.25239908  0.83335353  0.95490345    -0.01200
C777        C  0.02459383  0.70192233  0.96651398    -0.02400
C778        C  0.98316639  0.70637045  0.96097436     0.07300
C779        C  0.96813774  0.74505435  0.95555026    -0.02500
C780        C  0.99431015  0.77886313  0.95555979    -0.02500
C781        C  0.03590576  0.77425634  0.96069003     0.07500
C782        C  0.05096101  0.73563575  0.96611321    -0.02700
Br783      Br  0.10827865  0.72817835  0.97179683    -0.01200
Br784      Br  0.04512142  0.65011569  0.97576140    -0.01300
Br785      Br  0.97238876  0.83179611  0.94923339    -0.01300
Br786      Br  0.91201038  0.75197634  0.94706972    -0.01200
C787        C  0.88284730  0.08589918  0.10915766    -0.02400
C788        C  0.88750022  0.11986525  0.09581379     0.07300
C789        C  0.88555121  0.15927737  0.10449043    -0.02500
C790        C  0.87874850  0.16456077  0.12624379    -0.02500
C791        C  0.87431249  0.13055915  0.13952613     0.07500
C792        C  0.87627054  0.09129179  0.13092335    -0.02700
Br793      Br  0.86859022  0.04470963  0.14889310    -0.01200
Br794      Br  0.88437854  0.03173050  0.09775432    -0.01300
Br795      Br  0.87884194  0.21856844  0.13803864    -0.01300
Br796      Br  0.89595630  0.20641410  0.08715179    -0.01200
C797        C  0.78683591  0.07519321  0.99030002    -0.02400
C798        C  0.79713206  0.10213329  0.00670828     0.07300
C799        C  0.76791785  0.12989503  0.01411456    -0.02500
C800        C  0.72948327  0.13253311  0.00438553    -0.02500
C801        C  0.71937495  0.10648490  0.98746246     0.07500
C802        C  0.74822955  0.07758703  0.98054949    -0.02700
Br803      Br  0.73671412  0.04364733  0.95646551    -0.01200
Br804      Br  0.82622098  0.03608920  0.98054917    -0.01300
Br805      Br  0.69075087  0.17171406  0.01483208    -0.01300
Br806      Br  0.77968260  0.16263320  0.03865258    -0.01200
C807        C  0.97808558  0.97803553  0.00837940    -0.02400
C808        C  0.98561933  0.01972979  0.00537026     0.07300
C809        C  0.01951123  0.03203503  0.99322507    -0.02500
C810        C  0.04459337  0.00306383  0.98339719    -0.02500
C811        C  0.03721520  0.96124546  0.98639681     0.07500
C812        C  0.00400670  0.94893047  0.99918170    -0.02700
Br813      Br  0.99227019  0.89213180  0.00357262    -0.01200
Br814      Br  0.93111686  0.96037315  0.02433063    -0.01300
Br815      Br  0.09029708  0.02151822  0.96671407    -0.01300
Br816      Br  0.03402389  0.08871684  0.99147169    -0.01200
C817        C  0.11656438  0.41081887  0.11297371    -0.02400
C818        C  0.13704080  0.38469718  0.09884106     0.07300
C819        C  0.16559658  0.35655212  0.10682472    -0.02500
C820        C  0.17059453  0.35182616  0.12873319    -0.02500
C821        C  0.14892539  0.37689188  0.14276928     0.07500
C822        C  0.12354208  0.40765307  0.13480639    -0.02700
Br823      Br  0.09888575  0.44613850  0.15388382    -0.01200
Br824      Br  0.07606328  0.44870194  0.10307240    -0.01300
Br825      Br  0.20448204  0.30852972  0.13935383    -0.01300
Br826      Br  0.19899623  0.32485219  0.08795688    -0.01200
C827        C  0.25053909  0.41683399  0.01555833    -0.02400
C828        C  0.21683401  0.39891642  0.00530645     0.07300
C829        C  0.22094909  0.38411991  0.98454056    -0.02500
C830        C  0.25917815  0.38465341  0.97463501    -0.02500
C831        C  0.29317488  0.40044262  0.98532590     0.07500
C832        C  0.28867294  0.41782097  0.00544581    -0.02700
Br833      Br  0.33533499  0.44109036  0.01949897    -0.01200
Br834      Br  0.24562445  0.43727896  0.04397817    -0.01300
Br835      Br  0.26502308  0.36462345  0.94619802    -0.01300
Br836      Br  0.17397720  0.36440546  0.96927952    -0.01200
C837        C  0.96292630  0.49854305  0.00349664    -0.02400
C838        C  0.97553029  0.51909093  0.98511676     0.07300
C839        C  0.01488075  0.51234383  0.97693080    -0.02500
C840        C  0.04174869  0.48578317  0.98731014    -0.02500
C841        C  0.02906132  0.46500232  0.00567317     0.07500
C842        C  0.98950465  0.47151546  0.01372182    -0.02700
Br843      Br  0.97072142  0.44254508  0.03838590    -0.01200
Br844      Br  0.90844519  0.50586964  0.01420413    -0.01300
Br845      Br  0.09711146  0.48091591  0.97727017    -0.01300
Br846      Br  0.03313560  0.54135273  0.95216657    -0.01200
C847        C  0.97304525  0.24706412  0.02013308    -0.02400
C848        C  0.98889910  0.20953384  0.02702600     0.07300
C849        C  0.02976128  0.20738358  0.03401796    -0.02500
C850        C  0.05385987  0.24263230  0.03495438    -0.02500
C851        C  0.03758485  0.28016928  0.02861027     0.07500
C852        C  0.99748794  0.28214407  0.02075406    -0.02700
Br853      Br  0.97641086  0.33288397  0.01024068    -0.01200
Br854      Br  0.91700332  0.25169131  0.01119704    -0.01300
Br855      Br  0.10846932  0.23970171  0.04623731    -0.01300
Br856      Br  0.05354998  0.15607979  0.04195073    -0.01200
C857        C  0.60643321  0.15942281  0.86275281    -0.02400
C858        C  0.62997877  0.13162210  0.85114625     0.07300
C859        C  0.64934927  0.09924722  0.86160999    -0.02500
C860        C  0.64464397  0.09442516  0.88361355    -0.02500
C861        C  0.62154940  0.12266549  0.89523354     0.07500
C862        C  0.60249965  0.15519038  0.88471873    -0.02700
Br863      Br  0.56943214  0.19331766  0.90021816    -0.01200
Br864      Br  0.58052114  0.20439846  0.84860170    -0.01300
Br865      Br  0.67081488  0.04992398  0.89793062    -0.01300
Br866      Br  0.68136224  0.06101352  0.84574219    -0.01200
C867        C  0.39197020  0.34319253  0.86344011    -0.02400
C868        C  0.36854850  0.37185658  0.85228277     0.07300
C869        C  0.35067487  0.40449300  0.86317210    -0.02500
C870        C  0.35720522  0.40905181  0.88506255    -0.02500
C871        C  0.38083994  0.38041916  0.89614288     0.07500
C872        C  0.39798011  0.34734788  0.88526956    -0.02700
Br873      Br  0.43175618  0.30860744  0.90000923    -0.01200
Br874      Br  0.41517322  0.29724762  0.84896435    -0.01300
Br875      Br  0.33301255  0.45390394  0.89993359    -0.01300
Br876      Br  0.31841822  0.44350859  0.84798372    -0.01200
C877        C  0.45887903  0.23303160  0.78697756    -0.02400
C878        C  0.46188155  0.27501354  0.78291122     0.07300
C879        C  0.50039736  0.29229379  0.77855871    -0.02500
C880        C  0.53545285  0.26783198  0.77821706    -0.02500
C881        C  0.53264027  0.22611320  0.78289752     0.07500
C882        C  0.49412551  0.20879664  0.78720995    -0.02700
Br883      Br  0.48929620  0.15228625  0.79482173    -0.01200
Br884      Br  0.40639482  0.20794687  0.79180577    -0.01300
Br885      Br  0.58713384  0.29177232  0.77056672    -0.01300
Br886      Br  0.50632940  0.35008038  0.77457482     0.02000
C887        C  0.16693450  0.13911358  0.63211398    -0.02400
C888        C  0.14061330  0.11700519  0.64559839     0.07300
C889        C  0.11115667  0.09093070  0.63654240    -0.02500
C890        C  0.10623779  0.08906127  0.61447160    -0.02500
C891        C  0.13169844  0.11202242  0.60106456     0.07500
C892        C  0.16270788  0.13629550  0.60999518    -0.02700
Br893      Br  0.19998969  0.16565641  0.59198161    -0.01200
Br894      Br  0.20734097  0.17575495  0.64350689    -0.01300
Br895      Br  0.06181478  0.05757647  0.60290465    -0.01300
Br896      Br  0.07771324  0.05656436  0.65415859    -0.01200
C897        C  0.23632437  0.27178738  0.76595909    -0.02400
C898        C  0.27789973  0.27169073  0.76033264     0.07300
C899        C  0.29186376  0.24429559  0.74483309    -0.02500
C900        C  0.26432678  0.21798188  0.73466974    -0.02500
C901        C  0.22260481  0.21850412  0.74005085     0.07500
C902        C  0.20874760  0.24548054  0.75579963    -0.02700
Br903      Br  0.15150586  0.24864099  0.76269933    -0.01200
Br904      Br  0.21646161  0.30928458  0.78693850    -0.01300
Br905      Br  0.28452946  0.17977501  0.71410210    -0.01300
Br906      Br  0.34929574  0.24055894  0.73842555    -0.01200
C907        C  0.91881112  0.36888420  0.63972165    -0.02400
C908        C  0.88192453  0.37869630  0.64990353     0.07300
C909        C  0.84965639  0.39580003  0.63818354    -0.02500
C910        C  0.85440388  0.40307981  0.61638467    -0.02500
C911        C  0.89139031  0.39339998  0.60627146     0.07500
C912        C  0.92372876  0.37678074  0.61809887    -0.02700
Br913      Br  0.97430633  0.36206245  0.60459601    -0.01200
Br914      Br  0.96155687  0.34077918  0.65481738    -0.01300
Br915      Br  0.81089461  0.42791467  0.60054741    -0.01300
Br916      Br  0.79926214  0.41016854  0.65196768    -0.01200
C917        C  0.71611641  0.25144512  0.74237947    -0.02400
C918        C  0.72642276  0.22665824  0.75978590     0.07300
C919        C  0.76667154  0.22720613  0.76762450    -0.02500
C920        C  0.79628681  0.25233370  0.75822324    -0.02500
C921        C  0.78560792  0.27795533  0.74124728     0.07500
C922        C  0.74537837  0.27750090  0.73343061    -0.02700
Br923      Br  0.72931436  0.31430860  0.71117270    -0.01200
Br924      Br  0.66158198  0.25116306  0.73093619    -0.01300
Br925      Br  0.85212968  0.24925876  0.76777327    -0.01300
Br926      Br  0.78234309  0.19154499  0.79038144    -0.01200
C927        C  0.01316567  0.28796865  0.71372960    -0.02400
C928        C  0.97332549  0.27213171  0.71531419     0.07300
C929        C  0.96751274  0.22977599  0.71630070    -0.02500
C930        C  0.00119917  0.20348118  0.71547725    -0.02500
C931        C  0.04104834  0.21933912  0.71378378     0.07500
C932        C  0.04686509  0.26170961  0.71291632    -0.02700
Br933      Br  0.10109009  0.28438886  0.71114120    -0.01200
Br934      Br  0.02191546  0.34568761  0.71156681    -0.01300
Br935      Br  0.99208786  0.14560356  0.71537236    -0.01300
Br936      Br  0.91345635  0.20735301  0.71954517    -0.01200
C937        C  0.38939780  0.66050338  0.63025957    -0.02400
C938        C  0.37962211  0.62670892  0.64287866     0.07300
C939        C  0.37440946  0.58839065  0.63351283    -0.02500
C940        C  0.37886535  0.58383793  0.61153708    -0.02500
C941        C  0.38804795  0.61779252  0.59887725     0.07500
C942        C  0.39367443  0.65608952  0.60833393    -0.02700
Br943      Br  0.41069984  0.70215774  0.59159751    -0.01200
Br944      Br  0.39960983  0.71257744  0.64311690    -0.01300
Br945      Br  0.37135274  0.53129267  0.59880235    -0.01300
Br946      Br  0.35951275  0.54253615  0.65069463    -0.01200
C947        C  0.34130239  0.53238319  0.75446439    -0.02400
C948        C  0.36414888  0.53552179  0.73567148     0.07300
C949        C  0.38268774  0.50071976  0.72718814    -0.02500
C950        C  0.37939362  0.46326613  0.73770084    -0.02500
C951        C  0.35857577  0.46053084  0.75717581     0.07500
C952        C  0.33882358  0.49511663  0.76530537    -0.02700
Br953      Br  0.31028034  0.49242518  0.79188026    -0.01200
Br954      Br  0.31507947  0.57973791  0.76599261    -0.01300
Br955      Br  0.40127536  0.41516025  0.72456777    -0.01300
Br956      Br  0.41120909  0.50389250  0.70062610    -0.01200
C957        C  0.66379357  0.86346094  0.62784730    -0.02400
C958        C  0.63579985  0.88216009  0.64177851     0.07300
C959        C  0.60360774  0.90554231  0.63320096    -0.02500
C960        C  0.59845053  0.90846108  0.61113237    -0.02500
C961        C  0.62602685  0.88913812  0.59736528     0.07500
C962        C  0.65910914  0.86740261  0.60582591    -0.02700
Br963      Br  0.69874627  0.84343494  0.58712734    -0.01200
Br964      Br  0.70727723  0.82967774  0.63840154    -0.01300
Br965      Br  0.55157815  0.93647048  0.59985825    -0.01300
Br966      Br  0.56662935  0.93476305  0.65140240    -0.01200
C967        C  0.67993048  0.98287116  0.74709249    -0.02400
C968        C  0.64546669  0.96848883  0.73612365     0.07300
C969        C  0.60989500  0.99218647  0.73529605    -0.02500
C970        C  0.60790837  0.02912258  0.74623206    -0.02500
C971        C  0.64253931  0.04401633  0.75706433     0.07500
C972        C  0.67883225  0.02093445  0.75712221    -0.02700
Br973      Br  0.72805047  0.04183523  0.76989932    -0.01200
Br974      Br  0.72815178  0.94977369  0.74927436    -0.01300
Br975      Br  0.55642337  0.05741665  0.74714680    -0.01300
Br976      Br  0.56437044  0.97514110  0.71804911    -0.01200
C977        C  0.51533382  0.71225339  0.71547094    -0.02400
C978        C  0.47614443  0.72647840  0.70999734     0.07300
C979        C  0.47099457  0.76779456  0.70463853    -0.02500
C980        C  0.50473357  0.79417549  0.70429918    -0.02500
C981        C  0.54364150  0.77995468  0.71009242     0.07500
C982        C  0.54861888  0.73917860  0.71616558    -0.02700
Br983      Br  0.60065339  0.72041504  0.72652598    -0.01200
Br984      Br  0.52476395  0.65527116  0.72019960    -0.01300
Br985      Br  0.49777892  0.84934318  0.69463864    -0.01300
Br986      Br  0.41774233  0.78935886  0.69814465    -0.01200
C987        C  0.15152846  0.82597984  0.86472181    -0.02400
C988        C  0.15245778  0.86036412  0.85152822     0.07300
C989        C  0.14995776  0.89937887  0.86041374    -0.02500
C990        C  0.14583896  0.90403489  0.88240176    -0.02500
C991        C  0.14350957  0.86962300  0.89558939     0.07500
C992        C  0.14694738  0.83053310  0.88666158    -0.02700
Br993      Br  0.14151019  0.78258804  0.90400330    -0.01200
Br994      Br  0.15240805  0.77221161  0.85263406    -0.01300
Br995      Br  0.14455717  0.95772632  0.89438033    -0.01300
Br996      Br  0.15259450  0.94652565  0.84241161    -0.01200
C997        C  0.11623107  0.96197214  0.74419536    -0.02400
C998        C  0.14675796  0.95303573  0.75924890     0.07300
C999        C  0.17599948  0.98291601  0.76437884    -0.02500
C1000       C  0.17477971  0.02120163  0.75448431    -0.02500
C1001       C  0.14458802  0.02981943  0.73925414     0.07500
C1002       C  0.11515478  0.00014515  0.73431436    -0.02700
Br1003     Br  0.07387232  0.01097580  0.71332903    -0.01200
Br1004     Br  0.07654375  0.92150927  0.73607669    -0.01300
Br1005     Br  0.21255976  0.06290765  0.76314661    -0.01300
Br1006     Br  0.21630186  0.97273818  0.78597084    -0.01200
C1007       C  0.21928441  0.73284801  0.74577498    -0.02400
C1008       C  0.23172349  0.76654780  0.75792289     0.07300
C1009       C  0.27361815  0.77595509  0.75946976    -0.02500
C1010       C  0.30266570  0.75231487  0.74874081    -0.02500
C1011       C  0.29025782  0.71842111  0.73675397     0.07500
C1012       C  0.24838595  0.70896919  0.73520033    -0.02700
Br1013     Br  0.23051867  0.66225726  0.71930517    -0.01200
Br1014     Br  0.16250708  0.71745012  0.74460075    -0.01300
Br1015     Br  0.35925201  0.76863125  0.74923452    -0.01300
Br1016     Br  0.29164421  0.82246301  0.77545672    -0.01200
C1017       C  0.84886483  0.60359396  0.86046838    -0.02400
C1018       C  0.87334568  0.63204010  0.84976440     0.07300
C1019       C  0.90259875  0.65471314  0.86099202    -0.02500
C1020       C  0.90729256  0.64904274  0.88283062    -0.02500
C1021       C  0.88340754  0.61997807  0.89347712     0.07500
C1022       C  0.85444283  0.59697447  0.88224502    -0.02700
Br1023     Br  0.82147301  0.55745775  0.89680791    -0.01200
Br1024     Br  0.80800265  0.57348587  0.84525728    -0.01300
Br1025     Br  0.94750618  0.68040154  0.89803761    -0.01300
Br1026     Br  0.93515485  0.69499327  0.84667502    -0.01200
C1027       C  0.86056231  0.53687536  0.73504667    -0.02400
C1028       C  0.85834841  0.54175155  0.75716460     0.07300
C1029       C  0.85794409  0.50717892  0.77028667    -0.02500
C1030       C  0.86083519  0.46820939  0.76143122    -0.02500
C1031       C  0.86264199  0.46336024  0.73937567     0.07500
C1032       C  0.86196097  0.49775361  0.72617722    -0.02700
Br1033     Br  0.86500960  0.49134410  0.69592271    -0.01200
Br1034     Br  0.86105660  0.58361389  0.71673194    -0.01300
Br1035     Br  0.86188925  0.42129849  0.77960445    -0.01300
Br1036     Br  0.85577248  0.51289340  0.80056865    -0.01200
C1037       C  0.76624264  0.72043251  0.73611639    -0.02400
C1038       C  0.77992641  0.72893598  0.75672385     0.07300
C1039       C  0.76647195  0.76424664  0.76707743    -0.02500
C1040       C  0.73974953  0.79110157  0.75679350    -0.02500
C1041       C  0.72642828  0.78291075  0.73600854     0.07500
C1042       C  0.73957686  0.74723728  0.72578553    -0.02700
Br1043     Br  0.71908808  0.73311760  0.69816187    -0.01200
Br1044     Br  0.78207269  0.67064707  0.72243212    -0.01300
Br1045     Br  0.72304804  0.83997781  0.77111644    -0.01300
Br1046     Br  0.78631176  0.77723772  0.79497970    -0.01200
C1047       C  0.00413283  0.70741188  0.79257311    -0.02400
C1048       C  0.96781403  0.72516821  0.78516712     0.07300
C1049       C  0.96779514  0.76570899  0.77823284    -0.02500
C1050       C  0.00425169  0.78820509  0.77829762    -0.02500
C1051       C  0.04076524  0.77027875  0.78548681     0.07500
C1052       C  0.04044443  0.72996596  0.79287013    -0.02700
Br1053     Br  0.08989467  0.70474956  0.80284612    -0.01200
Br1054     Br  0.00401873  0.65248193  0.80315819    -0.01300
Br1055     Br  0.00337778  0.84425809  0.76955016    -0.01300
Br1056     Br  0.91817179  0.79008344  0.76789836    -0.01200
loop_ 
_geom_bond_atom_site_label_1 
_geom_bond_atom_site_label_2 
_geom_bond_distance 
_geom_bond_site_symmetry_2 
_ccdc_geom_bond_type 
In1           O3   2.240       .  S
In1           O4   2.253       .  S
In1          O12   2.258       .  S
In1           O6   2.250       .  S
In1           O8   2.226       .  S
In1           O9   2.256       .  S
In1          O10   2.245       .  S
In1          O13   2.241       .  S
C2            O8   1.260       .  A
C2           O10   1.262       .  A
C2         C1048   1.472       .  S
O3           C11   1.258       .  A
O4           C11   1.260       .  A
C5           O12   1.260       .  A
C5            O6   1.257       .  A
C5         C1028   1.482       .  S
C7            O9   1.261       .  A
C7           O13   1.259       .  A
C7         C1018   1.474       .  S
C11        C1038   1.477       .  S
In14         O16   2.250       .  S
In14         O17   2.251       .  S
In14         O25   2.265       .  S
In14         O19   2.236       .  S
In14         O21   2.249       .  S
In14         O22   2.245       .  S
In14         O23   2.241       .  S
In14         O26   2.237       .  S
C15          O21   1.259       .  A
C15          O23   1.257       .  A
C15        C1051   1.476       .  S
O16          C24   1.260       .  A
O17          C24   1.261       .  A
C18          O25   1.261       .  A
C18          O19   1.256       .  A
C18         C998   1.486       .  S
C20          O22   1.262       .  A
C20          O26   1.260       .  A
C20         C988   1.475       .  S
C24        C1008   1.485       .  S
In27         O29   2.252       .  S
In27         O30   2.260       .  S
In27         O38   2.261       .  S
In27         O32   2.234       .  S
In27         O34   2.235       .  S
In27         O35   2.253       .  S
In27         O36   2.238       .  S
In27         O39   2.237       .  S
C28          O34   1.263       .  A
C28          O36   1.263       .  A
C28         C981   1.478       .  S
O29          C37   1.258       .  A
O30          C37   1.261       .  A
C31          O38   1.259       .  A
C31          O32   1.257       .  A
C31         C968   1.477       .  S
C33          O35   1.261       .  A
C33          O39   1.257       .  A
C33        C1041   1.482       .  S
C37         C958   1.494       .  S
In40         O42   2.249       .  S
In40         O43   2.240       .  S
In40         O51   2.253       .  S
In40         O45   2.258       .  S
In40         O47   2.264       .  S
In40         O48   2.245       .  S
In40         O49   2.239       .  S
In40         O52   2.242       .  S
C41          O47   1.262       .  A
C41          O49   1.256       .  A
C41         C978   1.486       .  S
O42          C50   1.261       .  A
O43          C50   1.260       .  A
C44          O51   1.260       .  A
C44          O45   1.262       .  A
C44         C948   1.482       .  S
C46          O48   1.262       .  A
C46          O52   1.261       .  A
C46        C1011   1.484       .  S
C50         C938   1.473       .  S
In53         O55   2.249       .  S
In53         O56   2.238       .  S
In53         O64   2.249       .  S
In53         O58   2.245       .  S
In53         O60   2.258       .  S
In53         O61   2.246       .  S
In53         O62   2.242       .  S
In53         O65   2.226       .  S
C54          O60   1.261       .  A
C54          O62   1.257       .  A
C54         C928   1.481       .  S
O55          C63   1.259       .  A
O56          C63   1.259       .  A
C57          O64   1.261       .  A
C57          O58   1.262       .  A
C57        C1031   1.478       .  S
C59          O61   1.262       .  A
C59          O65   1.261       .  A
C59         C908   1.477       .  S
C63         C921   1.480       .  S
In66         O68   2.249       .  S
In66         O69   2.252       .  S
In66         O77   2.259       .  S
In66         O71   2.246       .  S
In66         O73   2.246       .  S
In66         O74   2.261       .  S
In66         O75   2.237       .  S
In66         O78   2.244       .  S
C67          O73   1.262       .  A
C67          O75   1.260       .  A
C67         C931   1.481       .  S
O68          C76   1.258       .  A
O69          C76   1.260       .  A
C70          O77   1.261       .  A
C70          O71   1.260       .  A
C70        C1001   1.484       .  S
C72          O74   1.262       .  A
C72          O78   1.259       .  A
C72         C888   1.492       .  S
C76         C901   1.484       .  S
In79         O81   2.234       .  S
In79         O82   2.269       .  S
In79         O90   2.268       .  S
In79         O84   2.235       .  S
In79         O86   2.246       .  S
In79         O87   2.257       .  S
In79         O88   2.235       .  S
In79         O91   2.246       .  S
C80          O86   1.261       .  A
C80          O88   1.259       .  A
C80         C878   1.482       .  S
O81          C89   1.258       .  A
O82          C89   1.263       .  A
C83          O90   1.262       .  A
C83          O84   1.258       .  A
C83         C951   1.485       .  S
C85          O87   1.260       .  A
C85          O91   1.258       .  A
C85         C898   1.483       .  S
C89         C868   1.478       .  S
In92         O94   2.235       .  S
In92         O95   2.260       .  S
In92        O103   2.251       .  S
In92         O97   2.234       .  S
In92         O99   2.247       .  S
In92        O100   2.260       .  S
In92        O101   2.245       .  S
In92        O104   2.248       .  S
C93          O99   1.260       .  A
C93         O101   1.260       .  A
C93         C881   1.483       .  S
O94         C102   1.260       .  A
O95         C102   1.263       .  A
C96         O103   1.261       .  A
C96          O97   1.258       .  A
C96         C971   1.484       .  S
C98         O100   1.260       .  A
C98         O104   1.256       .  A
C98         C918   1.483       .  S
C102        C858   1.477       .  S
In105       O107   2.243       .  S
In105       O108   2.252       .  S
In105       O116   2.247       .  S
In105       O110   2.229       .  S
In105       O112   2.240       .  S
In105       O113   2.242       .  S
In105       O114   2.241       .  S
In105       O117   2.242       .  S
C106        O112   1.262       .  A
C106        O114   1.262       .  A
C106        C851   1.477       .  S
O107        C115   1.258       .  A
O108        C115   1.258       .  A
C109        O116   1.258       .  A
C109        O110   1.259       .  A
C109        C828   1.472       .  S
C111        O113   1.261       .  A
C111        O117   1.260       .  A
C111        C841   1.480       .  S
C115        C818   1.483       .  S
In118       O120   2.239       .  S
In118       O121   2.248       .  S
In118       O129   2.265       .  S
In118       O123   2.236       .  S
In118       O125   2.261       .  S
In118       O126   2.256       .  S
In118       O127   2.239       .  S
In118       O130   2.242       .  S
C119        O125   1.261       .  A
C119        O127   1.257       .  A
C119        C848   1.483       .  S
O120        C128   1.260       .  A
O121        C128   1.262       .  A
C122        O129   1.262       .  A
C122        O123   1.260       .  A
C122        C798   1.481       .  S
C124        O126   1.261       .  A
C124        O130   1.260       .  A
C124        C808   1.485       .  S
C128        C788   1.482       .  S
In131       O133   2.245       .  S
In131       O134   2.253       .  S
In131       O142   2.252       .  S
In131       O136   2.245       .  S
In131       O138   2.257       .  S
In131       O139   2.250       .  S
In131       O140   2.242       .  S
In131       O143   2.240       .  S
C132        O138   1.261       .  A
C132        O140   1.257       .  A
C132        C781   1.481       .  S
O133        C141   1.260       .  A
O134        C141   1.262       .  A
C135        O142   1.262       .  A
C135        O136   1.261       .  A
C135        C768   1.479       .  S
C137        O139   1.262       .  A
C137        O143   1.260       .  A
C137        C991   1.481       .  S
C141        C811   1.490       .  S
In144       O146   2.244       .  S
In144       O147   2.250       .  S
In144       O155   2.263       .  S
In144       O149   2.237       .  S
In144       O151   2.244       .  S
In144       O152   2.253       .  S
In144       O153   2.251       .  S
In144       O156   2.231       .  S
C145        O151   1.261       .  A
C145        O153   1.261       .  A
C145        C778   1.482       .  S
O146        C154   1.259       .  A
O147        C154   1.260       .  A
C148        O155   1.261       .  A
C148        O149   1.258       .  A
C148        C758   1.478       .  S
C150        O152   1.262       .  A
C150        O156   1.259       .  A
C150       C1021   1.473       .  S
C154        C838   1.477       .  S
In157       O159   2.245       .  S
In157       O160   2.256       .  S
In157       O168   2.266       .  S
In157       O162   2.235       .  S
In157       O164   2.243       .  S
In157       O165   2.265       .  S
In157       O166   2.243       .  S
In157       O169   2.249       .  S
C158        O164   1.260       .  A
C158        O166   1.260       .  A
C158        C748   1.475       .  S
O159        C167   1.259       .  A
O160        C167   1.262       .  A
C161        O168   1.262       .  A
C161        O162   1.258       .  A
C161        C771   1.484       .  S
C163        O165   1.260       .  A
C163        O169   1.258       .  A
C163        C731   1.482       .  S
C167        C738   1.479       .  S
In170       O172   2.241       .  S
In170       O173   2.261       .  S
In170       O181   2.254       .  S
In170       O175   2.237       .  S
In170       O177   2.233       .  S
In170       O178   2.261       .  S
In170       O179   2.250       .  S
In170       O182   2.242       .  S
C171        O177   1.260       .  A
C171        O179   1.261       .  A
C171        C751   1.483       .  S
O172        C180   1.257       .  A
O173        C180   1.262       .  A
C174        O181   1.262       .  A
C174        O175   1.258       .  A
C174        C761   1.477       .  S
C176        O178   1.263       .  A
C176        O182   1.259       .  A
C176        C711   1.483       .  S
C180        C718   1.483       .  S
In183       O185   2.232       .  S
In183       O186   2.258       .  S
In183       O194   2.245       .  S
In183       O188   2.230       .  S
In183       O190   2.255       .  S
In183       O191   2.248       .  S
In183       O192   2.236       .  S
In183       O195   2.237       .  S
C184        O190   1.261       .  A
C184        O192   1.259       .  A
C184        C701   1.481       .  S
O185        C193   1.259       .  A
O186        C193   1.263       .  A
C187        O194   1.260       .  A
C187        O188   1.259       .  A
C187        C831   1.466       .  S
C189        O191   1.262       .  A
C189        O195   1.260       .  A
C189        C721   1.479       .  S
C193        C871   1.477       .  S
In196       O198   2.240       .  S
In196       O199   2.264       .  S
In196       O207   2.267       .  S
In196       O201   2.247       .  S
In196       O203   2.244       .  S
In196       O204   2.248       .  S
In196       O205   2.242       .  S
In196       O208   2.241       .  S
C197        O203   1.262       .  A
C197        O205   1.261       .  A
C197        C698   1.476       .  S
O198        C206   1.257       .  A
O199        C206   1.260       .  A
C200        O207   1.259       .  A
C200        O201   1.257       .  A
C200        C801   1.487       .  S
C202        O204   1.263       .  A
C202        O208   1.260       .  A
C202        C741   1.483       .  S
C206        C861   1.478       .  S
In209       O211   2.230       .  S
In209       O212   2.248       .  S
In209       O220   2.253       .  S
In209       O214   2.231       .  S
In209       O216   2.246       .  S
In209       O217   2.245       .  S
In209       O218   2.242       .  S
In209       O221   2.239       .  S
C210        O216   1.258       .  A
C210        O218   1.258       .  A
C210        C688   1.475       .  S
O211        C219   1.259       .  A
O212        C219   1.261       .  A
C213        O220   1.262       .  A
C213        O214   1.258       .  A
C213        C671   1.472       .  S
C215        O217   1.261       .  A
C215        O221   1.260       .  A
C215        C678   1.481       .  S
C219        C941   1.475       .  S
In222       O224   2.252       .  S
In222       O225   2.263       .  S
In222       O233   2.267       .  S
In222       O227   2.249       .  S
In222       O229   2.240       .  S
In222       O230   2.243       .  S
In222       O231   2.248       .  S
In222       O234   2.263       .  S
C223        O229   1.260       .  A
C223        O231   1.260       .  A
C223        C691   1.481       .  S
O224        C232   1.259       .  A
O225        C232   1.260       .  A
C226        O233   1.261       .  A
C226        O227   1.258       .  A
C226        C648   1.486       .  S
C228        O230   1.257       .  A
C228        O234   1.260       .  A
C228        C658   1.484       .  S
C232        C961   1.485       .  S
In235       O237   2.240       .  S
In235       O238   2.244       .  S
In235       O246   2.254       .  S
In235       O240   2.226       .  S
In235       O242   2.252       .  S
In235       O243   2.247       .  S
In235       O244   2.238       .  S
In235       O247   2.240       .  S
C236        O242   1.260       .  A
C236        O244   1.257       .  A
C236        C638   1.479       .  S
O237        C245   1.258       .  A
O238        C245   1.260       .  A
C239        O246   1.263       .  A
C239        O240   1.260       .  A
C239        C628   1.477       .  S
C241        O243   1.261       .  A
C241        O247   1.260       .  A
C241        C618   1.488       .  S
C245        C681   1.482       .  S
In248       O250   2.249       .  S
In248       O251   2.250       .  S
In248       O259   2.248       .  S
In248       O253   2.242       .  S
In248       O255   2.257       .  S
In248       O256   2.241       .  S
In248       O257   2.238       .  S
In248       O260   2.236       .  S
C249        O255   1.261       .  A
C249        O257   1.257       .  A
C249        C641   1.481       .  S
O250        C258   1.259       .  A
O251        C258   1.259       .  A
C252        O259   1.261       .  A
C252        O253   1.261       .  A
C252        C611   1.476       .  S
C254        O256   1.262       .  A
C254        O260   1.261       .  A
C254        C598   1.479       .  S
C258        C661   1.487       .  S
In261       O263   2.237       .  S
In261       O264   2.264       .  S
In261       O272   2.253       .  S
In261       O266   2.250       .  S
In261       O268   2.253       .  S
In261       O269   2.266       .  S
In261       O270   2.250       .  S
In261       O273   2.246       .  S
C262        O268   1.261       .  A
C262        O270   1.260       .  A
C262        C588   1.487       .  S
O263        C271   1.259       .  A
O264        C271   1.262       .  A
C265        O272   1.261       .  A
C265        O266   1.260       .  A
C265        C651   1.480       .  S
C267        O269   1.259       .  A
C267        O273   1.258       .  A
C267        C578   1.485       .  S
C271        C568   1.477       .  S
In274       O276   2.234       .  S
In274       O277   2.255       .  S
In274       O285   2.249       .  S
In274       O279   2.246       .  S
In274       O281   2.243       .  S
In274       O282   2.250       .  S
In274       O283   2.245       .  S
In274       O286   2.236       .  S
C275        O281   1.261       .  A
C275        O283   1.261       .  A
C275        C591   1.488       .  S
O276        C284   1.260       .  A
O277        C284   1.261       .  A
C278        O285   1.258       .  A
C278        O279   1.258       .  A
C278        C668   1.474       .  S
C280        O282   1.261       .  A
C280        O286   1.258       .  A
C280        C561   1.472       .  S
C284        C551   1.486       .  S
In287       O289   2.233       .  S
In287       O290   2.252       .  S
In287       O298   2.250       .  S
In287       O292   2.232       .  S
In287       O294   2.263       .  S
In287       O295   2.246       .  S
In287       O296   2.241       .  S
In287       O299   2.251       .  S
C288        O294   1.260       .  A
C288        O296   1.256       .  A
C288        C538   1.485       .  S
O289        C297   1.259       .  A
O290        C297   1.262       .  A
C291        O298   1.261       .  A
C291        O292   1.261       .  A
C291        C631   1.482       .  S
C293        O295   1.261       .  A
C293        O299   1.260       .  A
C293        C911   1.478       .  S
C297        C558   1.479       .  S
In300       O302   2.260       .  S
In300       O303   2.254       .  S
In300       O311   2.253       .  S
In300       O305   2.242       .  S
In300       O307   2.250       .  S
In300       O308   2.257       .  S
In300       O309   2.243       .  S
In300       O312   2.250       .  S
C301        O307   1.261       .  A
C301        O309   1.259       .  A
C301        C541   1.482       .  S
O302        C310   1.260       .  A
O303        C310   1.259       .  A
C304        O311   1.262       .  A
C304        O305   1.261       .  A
C304        C608   1.481       .  S
C306        O308   1.262       .  A
C306        O312   1.258       .  A
C306        C891   1.487       .  S
C310        C581   1.489       .  S
In313       O315   2.226       .  S
In313       O316   2.244       .  S
In313       O324   2.246       .  S
In313       O318   2.230       .  S
In313       O320   2.242       .  S
In313       O321   2.248       .  S
In313       O322   2.236       .  S
In313       O325   2.247       .  S
C314        O320   1.260       .  A
C314        O322   1.260       .  A
C314        C528   1.477       .  S
O315        C323   1.260       .  A
O316        C323   1.262       .  A
C317        O324   1.261       .  A
C317        O318   1.259       .  A
C317        C508   1.476       .  S
C319        O321   1.258       .  A
C319        O325   1.258       .  A
C319        C518   1.478       .  S
C323        C821   1.474       .  S
In326       O328   2.236       .  S
In326       O329   2.249       .  S
In326       O337   2.253       .  S
In326       O331   2.241       .  S
In326       O333   2.238       .  S
In326       O334   2.250       .  S
In326       O335   2.240       .  S
In326       O338   2.245       .  S
C327        O333   1.261       .  A
C327        O335   1.258       .  A
C327        C531   1.478       .  S
O328        C336   1.259       .  A
O329        C336   1.262       .  A
C330        O337   1.261       .  A
C330        O331   1.259       .  A
C330        C488   1.478       .  S
C332        O334   1.262       .  A
C332        O338   1.260       .  A
C332        C498   1.484       .  S
C336        C791   1.476       .  S
In339       O341   2.250       .  S
In339       O342   2.230       .  S
In339       O350   2.255       .  S
In339       O344   2.243       .  S
In339       O346   2.247       .  S
In339       O347   2.266       .  S
In339       O348   2.240       .  S
In339       O351   2.228       .  S
C340        O346   1.262       .  A
C340        O348   1.260       .  A
C340        C481   1.478       .  S
O341        C349   1.261       .  A
O342        C349   1.261       .  A
C343        O350   1.260       .  A
C343        O344   1.259       .  A
C343        C468   1.484       .  S
C345        O347   1.260       .  A
C345        O351   1.256       .  A
C345        C601   1.470       .  S
C349        C521   1.481       .  S
In352       O354   2.243       .  S
In352       O355   2.258       .  S
In352       O363   2.255       .  S
In352       O357   2.241       .  S
In352       O359   2.252       .  S
In352       O360   2.248       .  S
In352       O361   2.248       .  S
In352       O364   2.254       .  S
C353        O359   1.259       .  A
C353        O361   1.259       .  A
C353        C478   1.482       .  S
O354        C362   1.260       .  A
O355        C362   1.261       .  A
C356        O363   1.259       .  A
C356        O357   1.258       .  A
C356        C458   1.481       .  S
C358        O360   1.261       .  A
C358        O364   1.260       .  A
C358        C621   1.484       .  S
C362        C501   1.485       .  S
In365       O367   2.247       .  S
In365       O368   2.250       .  S
In365       O376   2.268       .  S
In365       O370   2.239       .  S
In365       O372   2.245       .  S
In365       O373   2.257       .  S
In365       O374   2.235       .  S
In365       O377   2.257       .  S
C366        O372   1.260       .  A
C366        O374   1.259       .  A
C366        C451   1.472       .  S
O367        C375   1.259       .  A
O368        C375   1.261       .  A
C369        O376   1.262       .  A
C369        O370   1.258       .  A
C369        C471   1.483       .  S
C371        O373   1.260       .  A
C371        O377   1.260       .  A
C371        C728   1.482       .  S
C375        C438   1.480       .  S
In378       O380   2.250       .  S
In378       O381   2.245       .  S
In378       O389   2.249       .  S
In378       O383   2.245       .  S
In378       O385   2.248       .  S
In378       O386   2.262       .  S
In378       O387   2.236       .  S
In378       O390   2.243       .  S
C379        O385   1.261       .  A
C379        O387   1.260       .  A
C379        C448   1.480       .  S
O380        C388   1.260       .  A
O381        C388   1.260       .  A
C382        O389   1.259       .  A
C382        O383   1.258       .  A
C382        C461   1.479       .  S
C384        O386   1.260       .  A
C384        O390   1.259       .  A
C384        C708   1.476       .  S
C388        C428   1.480       .  S
In391       O393   2.238       .  S
In391       O394   2.252       .  S
In391       O402   2.256       .  S
In391       O396   2.244       .  S
In391       O398   2.253       .  S
In391       O399   2.251       .  S
In391       O400   2.224       .  S
In391       O403   2.246       .  S
C392        O398   1.261       .  A
C392        O400   1.257       .  A
C392        C418   1.476       .  S
O393        C401   1.260       .  A
O394        C401   1.262       .  A
C395        O402   1.261       .  A
C395        O396   1.259       .  A
C395        C491   1.485       .  S
C397        O399   1.260       .  A
C397        O403   1.260       .  A
C397        C431   1.483       .  S
C401        C571   1.481       .  S
In404       O406   2.247       .  S
In404       O407   2.246       .  S
In404       O415   2.247       .  S
In404       O409   2.245       .  S
In404       O411   2.229       .  S
In404       O412   2.248       .  S
In404       O413   2.231       .  S
In404       O416   2.243       .  S
C405        O411   1.263       .  A
C405        O413   1.264       .  A
C405        C421   1.474       .  S
O406        C414   1.260       .  A
O407        C414   1.259       .  A
C408        O415   1.256       .  A
C408        O409   1.256       .  A
C408        C511   1.474       .  S
C410        O412   1.258       .  A
C410        O416   1.255       .  A
C410        C441   1.482       .  S
C414        C548   1.484       .  S
C417        C418   1.413       .  A
C417        C422   1.405   1_655  A
C417       Br424   1.935       .  S
C418        C419   1.412   1_655  A
C419        C420   1.407       .  A
C419       Br426   1.933       .  S
C420        C421   1.411       .  A
C420       Br425   1.934       .  S
C421        C422   1.410       .  A
C422       Br423   1.933   1_455  S
C427        C428   1.410       .  A
C427        C432   1.408       .  A
C427       Br434   1.933       .  S
C428        C429   1.412       .  A
C429        C430   1.410       .  A
C429       Br436   1.932       .  S
C430        C431   1.413       .  A
C430       Br435   1.932       .  S
C431        C432   1.414       .  A
C432       Br433   1.933       .  S
C437        C438   1.411       .  A
C437        C442   1.408       .  A
C437       Br444   1.933       .  S
C438        C439   1.411       .  A
C439        C440   1.408       .  A
C439       Br446   1.931       .  S
C440        C441   1.414       .  A
C440       Br445   1.935       .  S
C441        C442   1.415       .  A
C442       Br443   1.935       .  S
C447        C448   1.413       .  A
C447        C452   1.406       .  A
C447       Br454   1.931       .  S
C448        C449   1.415       .  A
C449        C450   1.408       .  A
C449       Br456   1.933       .  S
C450        C451   1.409       .  A
C450       Br455   1.934       .  S
C451        C452   1.408       .  A
C452       Br453   1.933       .  S
C457        C458   1.412       .  A
C457        C462   1.408       .  A
C457       Br464   1.932       .  S
C458        C459   1.413       .  A
C459        C460   1.408       .  A
C459       Br466   1.934       .  S
C460        C461   1.411       .  A
C460       Br465   1.933       .  S
C461        C462   1.412       .  A
C462       Br463   1.934       .  S
C467        C468   1.413       .  A
C467        C472   1.408   1_545  A
C467       Br474   1.934       .  S
C468        C469   1.414       .  A
C469        C470   1.412   1_545  A
C469       Br476   1.932       .  S
C470        C471   1.412       .  A
C470       Br475   1.930       .  S
C471        C472   1.411       .  A
C472       Br473   1.933       .  S
C477        C478   1.414       .  A
C477        C482   1.409       .  A
C477       Br484   1.933       .  S
C478        C479   1.413       .  A
C479        C480   1.407       .  A
C479       Br486   1.931       .  S
C480        C481   1.410       .  A
C480       Br485   1.933       .  S
C481        C482   1.410       .  A
C482       Br483   1.931       .  S
C487        C488   1.409       .  A
C487        C492   1.409   1_545  A
C487       Br494   1.933       .  S
C488        C489   1.410       .  A
C489        C490   1.409   1_545  A
C489       Br496   1.933       .  S
C490        C491   1.415       .  A
C490       Br495   1.934       .  S
C491        C492   1.414       .  A
C492       Br493   1.931       .  S
C497        C498   1.414       .  A
C497        C502   1.411       .  A
C497       Br504   1.933       .  S
C498        C499   1.411       .  A
C499        C500   1.409       .  A
C499       Br506   1.933       .  S
C500        C501   1.414       .  A
C500       Br505   1.931       .  S
C501        C502   1.413       .  A
C502       Br503   1.933       .  S
C507        C508   1.412       .  A
C507        C512   1.405       .  A
C507       Br514   1.934       .  S
C508        C509   1.412       .  A
C509        C510   1.407       .  A
C509       Br516   1.932       .  S
C510        C511   1.411       .  A
C510       Br515   1.933       .  S
C511        C512   1.410       .  A
C512       Br513   1.934       .  S
C517        C518   1.411       .  A
C517        C522   1.406       .  A
C517       Br524   1.932       .  S
C518        C519   1.410       .  A
C519        C520   1.409       .  A
C519       Br526   1.933       .  S
C520        C521   1.414       .  A
C520       Br525   1.931       .  S
C521        C522   1.412       .  A
C522       Br523   1.935       .  S
C527        C528   1.413       .  A
C527        C532   1.408   1_455  A
C527       Br534   1.935       .  S
C528        C529   1.410       .  A
C529        C530   1.405       .  A
C529       Br536   1.932       .  S
C530        C531   1.412   1_455  A
C530       Br535   1.934       .  S
C531        C532   1.414       .  A
C532       Br533   1.934       .  S
C537        C538   1.414       .  A
C537        C542   1.410       .  A
C537       Br544   1.933       .  S
C538        C539   1.415   1_655  A
C539        C540   1.408       .  A
C539       Br546   1.934       .  S
C540        C541   1.411       .  A
C540       Br545   1.934       .  S
C541        C542   1.412   1_455  A
C542       Br543   1.933       .  S
C547        C548   1.414       .  A
C547        C552   1.408       .  A
C547       Br554   1.934       .  S
C548        C549   1.413       .  A
C549        C550   1.410       .  A
C549       Br556   1.935       .  S
C550        C551   1.415       .  A
C550       Br555   1.933       .  S
C551        C552   1.412       .  A
C552       Br553   1.934       .  S
C557        C558   1.414   1_455  A
C557        C562   1.407       .  A
C557       Br564   1.931       .  S
C558        C559   1.412       .  A
C559        C560   1.407       .  A
C559       Br566   1.931       .  S
C560        C561   1.408   1_655  A
C560       Br565   1.931       .  S
C561        C562   1.407       .  A
C562       Br563   1.932       .  S
C567        C568   1.409       .  A
C567        C572   1.405       .  A
C567       Br574   1.934       .  S
C568        C569   1.410       .  A
C569        C570   1.412       .  A
C569       Br576   1.928       .  S
C570        C571   1.412       .  A
C570       Br575   1.930       .  S
C571        C572   1.414       .  A
C572       Br573   1.934       .  S
C577        C578   1.412       .  A
C577        C582   1.409   1_655  A
C577       Br584   1.935       .  S
C578        C579   1.413   1_565  A
C579        C580   1.413   1_655  A
C579       Br586   1.933       .  S
C580        C581   1.416       .  A
C580       Br585   1.933       .  S
C581        C582   1.414   1_545  A
C582       Br583   1.933       .  S
C587        C588   1.414       .  A
C587        C592   1.410       .  A
C587       Br594   1.934       .  S
C588        C589   1.413   1_655  A
C589        C590   1.410       .  A
C589       Br596   1.933       .  S
C590        C591   1.416       .  A
C590       Br595   1.936       .  S
C591        C592   1.415   1_455  A
C592       Br593   1.935       .  S
C597        C598   1.414       .  A
C597        C602   1.404       .  A
C597       Br604   1.933       .  S
C598        C599   1.414       .  A
C599        C600   1.410       .  A
C599       Br606   1.931       .  S
C600        C601   1.406       .  A
C600       Br605   1.927       .  S
C601        C602   1.407       .  A
C602       Br603   1.934       .  S
C607        C608   1.412       .  A
C607        C612   1.409       .  A
C607       Br614   1.931       .  S
C608        C609   1.412       .  A
C609        C610   1.409       .  A
C609       Br616   1.930       .  S
C610        C611   1.409       .  A
C610       Br615   1.932       .  S
C611        C612   1.409       .  A
C612       Br613   1.932       .  S
C617        C618   1.416       .  A
C617        C622   1.411       .  A
C617       Br624   1.934       .  S
C618        C619   1.417       .  A
C619        C620   1.409       .  A
C619       Br626   1.937       .  S
C620        C621   1.412       .  A
C620       Br625   1.935       .  S
C621        C622   1.411       .  A
C622       Br623   1.932       .  S
C627        C628   1.410       .  A
C627        C632   1.411       .  A
C627       Br634   1.931       .  S
C628        C629   1.409       .  A
C629        C630   1.406       .  A
C629       Br636   1.934       .  S
C630        C631   1.414       .  A
C630       Br635   1.935       .  S
C631        C632   1.415       .  A
C632       Br633   1.932       .  S
C637        C638   1.413       .  A
C637        C642   1.408       .  A
C637       Br644   1.935       .  S
C638        C639   1.411       .  A
C639        C640   1.408       .  A
C639       Br646   1.933       .  S
C640        C641   1.413       .  A
C640       Br645   1.933       .  S
C641        C642   1.412       .  A
C642       Br643   1.932       .  S
C647        C648   1.414       .  A
C647        C652   1.409       .  A
C647       Br654   1.931       .  S
C648        C649   1.413       .  A
C649        C650   1.411       .  A
C649       Br656   1.930       .  S
C650        C651   1.411       .  A
C650       Br655   1.932       .  S
C651        C652   1.409       .  A
C652       Br653   1.932       .  S
C657        C658   1.413       .  A
C657        C662   1.411       .  A
C657       Br664   1.933       .  S
C658        C659   1.413   1_565  A
C659        C660   1.409       .  A
C659       Br666   1.935       .  S
C660        C661   1.415       .  A
C660       Br665   1.934       .  S
C661        C662   1.415   1_545  A
C662       Br663   1.934       .  S
C667        C668   1.410       .  A
C667        C672   1.408       .  A
C667       Br674   1.930       .  S
C668        C669   1.411       .  A
C669        C670   1.407       .  A
C669       Br676   1.932       .  S
C670        C671   1.409       .  A
C670       Br675   1.932       .  S
C671        C672   1.409       .  A
C672       Br673   1.931       .  S
C677        C678   1.412       .  A
C677        C682   1.409       .  A
C677       Br684   1.934       .  S
C678        C679   1.413       .  A
C679        C680   1.407       .  A
C679       Br686   1.934       .  S
C680        C681   1.412       .  A
C680       Br685   1.934       .  S
C681        C682   1.415       .  A
C682       Br683   1.935       .  S
C687        C688   1.409       .  A
C687        C692   1.407       .  A
C687       Br694   1.933       .  S
C688        C689   1.410       .  A
C689        C690   1.408       .  A
C689       Br696   1.934       .  S
C690        C691   1.414       .  A
C690       Br695   1.932       .  S
C691        C692   1.415       .  A
C692       Br693   1.934       .  S
C697        C698   1.410       .  A
C697        C702   1.410       .  A
C697       Br704   1.932       .  S
C698        C699   1.409       .  A
C699        C700   1.407       .  A
C699       Br706   1.932       .  S
C700        C701   1.412       .  A
C700       Br705   1.932       .  S
C701        C702   1.414       .  A
C702       Br703   1.932       .  S
C707        C708   1.408       .  A
C707        C712   1.411       .  A
C707       Br714   1.929       .  S
C708        C709   1.408       .  A
C709        C710   1.408       .  A
C709       Br716   1.933       .  S
C710        C711   1.414       .  A
C710       Br715   1.934       .  S
C711        C712   1.413       .  A
C712       Br713   1.929       .  S
C717        C718   1.415   1_556  A
C717        C722   1.408       .  A
C717       Br724   1.932       .  S
C718        C719   1.412       .  A
C719        C720   1.409       .  A
C719       Br726   1.932       .  S
C720        C721   1.412   1_554  A
C720       Br725   1.933       .  S
C721        C722   1.410       .  A
C722       Br723   1.933       .  S
C727        C728   1.411       .  A
C727        C732   1.412       .  A
C727       Br734   1.930       .  S
C728        C729   1.412       .  A
C729        C730   1.409       .  A
C729       Br736   1.932       .  S
C730        C731   1.411       .  A
C730       Br735   1.934       .  S
C731        C732   1.410       .  A
C732       Br733   1.928       .  S
C737        C738   1.410   1_556  A
C737        C742   1.409   1_565  A
C737       Br744   1.932       .  S
C738        C739   1.410       .  A
C739        C740   1.409   1_565  A
C739       Br746   1.931       .  S
C740        C741   1.414   1_554  A
C740       Br745   1.933       .  S
C741        C742   1.413       .  A
C742       Br743   1.933       .  S
C747        C748   1.408       .  A
C747        C752   1.407       .  A
C747       Br754   1.933       .  S
C748        C749   1.410       .  A
C749        C750   1.408       .  A
C749       Br756   1.934       .  S
C750        C751   1.415       .  A
C750       Br755   1.932       .  S
C751        C752   1.416       .  A
C752       Br753   1.934       .  S
C757        C758   1.411       .  A
C757        C762   1.410       .  A
C757       Br764   1.931       .  S
C758        C759   1.411   1_556  A
C759        C760   1.407       .  A
C759       Br766   1.930       .  S
C760        C761   1.409       .  A
C760       Br765   1.931       .  S
C761        C762   1.412   1_554  A
C762       Br763   1.933       .  S
C767        C768   1.410   1_554  A
C767        C772   1.411       .  A
C767       Br774   1.931       .  S
C768        C769   1.409       .  A
C769        C770   1.408       .  A
C769       Br776   1.932       .  S
C770        C771   1.414   1_556  A
C770       Br775   1.934       .  S
C771        C772   1.413       .  A
C772       Br773   1.930       .  S
C777        C778   1.413   1_455  A
C777        C782   1.410       .  A
C777       Br784   1.931       .  S
C778        C779   1.413       .  A
C779        C780   1.408       .  A
C779       Br786   1.934       .  S
C780        C781   1.412   1_655  A
C780       Br785   1.934       .  S
C781        C782   1.411       .  A
C782       Br783   1.932       .  S
C787        C788   1.413       .  A
C787        C792   1.408       .  A
C787       Br794   1.931       .  S
C788        C789   1.415       .  A
C789        C790   1.408       .  A
C789       Br796   1.935       .  S
C790        C791   1.410       .  A
C790       Br795   1.935       .  S
C791        C792   1.409       .  A
C792       Br793   1.930       .  S
C797        C798   1.410   1_556  A
C797        C802   1.413       .  A
C797       Br804   1.932       .  S
C798        C799   1.409       .  A
C799        C800   1.407       .  A
C799       Br806   1.934       .  S
C800        C801   1.415   1_554  A
C800       Br805   1.934       .  S
C801        C802   1.416       .  A
C802       Br803   1.932       .  S
C807        C808   1.412   1_565  A
C807        C812   1.412   1_654  A
C807       Br814   1.933       .  S
C808        C809   1.412   1_654  A
C809        C810   1.409       .  A
C809       Br816   1.934       .  S
C810        C811   1.415   1_545  A
C810       Br815   1.933       .  S
C811        C812   1.418       .  A
C812       Br813   1.935   1_456  S
C817        C818   1.415       .  A
C817        C822   1.407       .  A
C817       Br824   1.932       .  S
C818        C819   1.415       .  A
C819        C820   1.407       .  A
C819       Br826   1.933       .  S
C820        C821   1.410       .  A
C820       Br825   1.934       .  S
C821        C822   1.409       .  A
C822       Br823   1.934       .  S
C827        C828   1.413       .  A
C827        C832   1.407       .  A
C827       Br834   1.931       .  S
C828        C829   1.411   1_554  A
C829        C830   1.404       .  A
C829       Br836   1.933       .  S
C830        C831   1.406       .  A
C830       Br835   1.930       .  S
C831        C832   1.407   1_556  A
C832       Br833   1.931       .  S
C837        C838   1.410   1_554  A
C837        C842   1.407       .  A
C837       Br844   1.929       .  S
C838        C839   1.411   1_655  A
C839        C840   1.408       .  A
C839       Br846   1.933       .  S
C840        C841   1.413   1_556  A
C840       Br845   1.933       .  S
C841        C842   1.412   1_455  A
C842       Br843   1.933       .  S
C847        C848   1.414       .  A
C847        C852   1.409       .  A
C847       Br854   1.932       .  S
C848        C849   1.415   1_655  A
C849        C850   1.408       .  A
C849       Br856   1.933       .  S
C850        C851   1.409       .  A
C850       Br855   1.933       .  S
C851        C852   1.409   1_455  A
C852       Br853   1.933       .  S
C857        C858   1.409       .  A
C857        C862   1.405       .  A
C857       Br864   1.933       .  S
C858        C859   1.410       .  A
C859        C860   1.412       .  A
C859       Br866   1.928       .  S
C860        C861   1.411       .  A
C860       Br865   1.930       .  S
C861        C862   1.411       .  A
C862       Br863   1.933       .  S
C867        C868   1.411       .  A
C867        C872   1.405       .  A
C867       Br874   1.932       .  S
C868        C869   1.410       .  A
C869        C870   1.412       .  A
C869       Br876   1.927       .  S
C870        C871   1.411       .  A
C870       Br875   1.929       .  S
C871        C872   1.410       .  A
C872       Br873   1.935       .  S
C877        C878   1.414       .  A
C877        C882   1.409       .  A
C877       Br884   1.935       .  S
C878        C879   1.414       .  A
C879        C880   1.408       .  A
C879       Br886   1.935       .  S
C880        C881   1.412       .  A
C880       Br885   1.933       .  S
C881        C882   1.414       .  A
C882       Br883   1.934       .  S
C887        C888   1.417       .  A
C887        C892   1.412       .  A
C887       Br894   1.934       .  S
C888        C889   1.416       .  A
C889        C890   1.410       .  A
C889       Br896   1.933       .  S
C890        C891   1.412       .  A
C890       Br895   1.934       .  S
C891        C892   1.413       .  A
C892       Br893   1.933       .  S
C897        C898   1.411       .  A
C897        C902   1.410       .  A
C897       Br904   1.932       .  S
C898        C899   1.413       .  A
C899        C900   1.409       .  A
C899       Br906   1.933       .  S
C900        C901   1.412       .  A
C900       Br905   1.934       .  S
C901        C902   1.415       .  A
C902       Br903   1.933       .  S
C907        C908   1.411       .  A
C907        C912   1.404       .  A
C907       Br914   1.937       .  S
C908        C909   1.413       .  A
C909        C910   1.411       .  A
C909       Br916   1.932       .  S
C910        C911   1.411       .  A
C910       Br915   1.930       .  S
C911        C912   1.412       .  A
C912       Br913   1.932       .  S
C917        C918   1.415       .  A
C917        C922   1.408       .  A
C917       Br924   1.932       .  S
C918        C919   1.412       .  A
C919        C920   1.409       .  A
C919       Br926   1.932       .  S
C920        C921   1.413       .  A
C920       Br925   1.934       .  S
C921        C922   1.411       .  A
C922       Br923   1.936       .  S
C927        C928   1.412   1_455  A
C927        C932   1.408       .  A
C927       Br934   1.932       .  S
C928        C929   1.413       .  A
C929        C930   1.409   1_655  A
C929       Br936   1.933       .  S
C930        C931   1.413       .  A
C930       Br935   1.935   1_455  S
C931        C932   1.413       .  A
C932       Br933   1.934       .  S
C937        C938   1.409       .  A
C937        C942   1.405       .  A
C937       Br944   1.933       .  S
C938        C939   1.409       .  A
C939        C940   1.409       .  A
C939       Br946   1.927       .  S
C940        C941   1.411       .  A
C940       Br945   1.930       .  S
C941        C942   1.412       .  A
C942       Br943   1.936       .  S
C947        C948   1.412       .  A
C947        C952   1.412       .  A
C947       Br954   1.931       .  S
C948        C949   1.409       .  A
C949        C950   1.409       .  A
C949       Br956   1.930       .  S
C950        C951   1.414       .  A
C950       Br955   1.934       .  S
C951        C952   1.413       .  A
C952       Br953   1.930       .  S
C957        C958   1.418       .  A
C957        C962   1.410       .  A
C957       Br964   1.933       .  S
C958        C959   1.418       .  A
C959        C960   1.412       .  A
C959       Br966   1.935       .  S
C960        C961   1.411       .  A
C960       Br965   1.934       .  S
C961        C962   1.409       .  A
C962       Br963   1.932       .  S
C967        C968   1.410       .  A
C967        C972   1.410   1_565  A
C967       Br974   1.931       .  S
C968        C969   1.408       .  A
C969        C970   1.405   1_565  A
C969       Br976   1.935       .  S
C970        C971   1.416       .  A
C970       Br975   1.934       .  S
C971        C972   1.416       .  A
C972       Br973   1.934       .  S
C977        C978   1.414       .  A
C977        C982   1.409       .  A
C977       Br984   1.931       .  S
C978        C979   1.417       .  A
C979        C980   1.408       .  A
C979       Br986   1.933       .  S
C980        C981   1.411       .  A
C980       Br985   1.936       .  S
C981        C982   1.410       .  A
C982       Br983   1.933       .  S
C987        C988   1.410       .  A
C987        C992   1.407       .  A
C987       Br994   1.935       .  S
C988        C989   1.409       .  A
C989        C990   1.409       .  A
C989       Br996   1.932       .  S
C990        C991   1.412       .  A
C990       Br995   1.930       .  S
C991        C992   1.415       .  A
C992       Br993   1.935       .  S
C997        C998   1.415       .  A
C997       C1002   1.408   1_565  A
C997      Br1004   1.935       .  S
C998        C999   1.414       .  A
C999       C1000   1.412   1_565  A
C999      Br1006   1.933       .  S
C1000      C1001   1.413       .  A
C1000     Br1005   1.932       .  S
C1001      C1002   1.411       .  A
C1002     Br1003   1.933       .  S
C1007      C1008   1.414       .  A
C1007      C1012   1.410       .  A
C1007     Br1014   1.933       .  S
C1008      C1009   1.413       .  A
C1009      C1010   1.409       .  A
C1009     Br1016   1.933       .  S
C1010      C1011   1.413       .  A
C1010     Br1015   1.934       .  S
C1011      C1012   1.413       .  A
C1012     Br1013   1.934       .  S
C1017      C1018   1.409       .  A
C1017      C1022   1.409       .  A
C1017     Br1024   1.928       .  S
C1018      C1019   1.410       .  A
C1019      C1020   1.405       .  A
C1019     Br1026   1.931       .  S
C1020      C1021   1.410       .  A
C1020     Br1025   1.934       .  S
C1021      C1022   1.410       .  A
C1022     Br1023   1.929       .  S
C1027      C1028   1.413       .  A
C1027      C1032   1.411       .  A
C1027     Br1034   1.931       .  S
C1028      C1029   1.412       .  A
C1029      C1030   1.408       .  A
C1029     Br1036   1.930       .  S
C1030      C1031   1.409       .  A
C1030     Br1035   1.930       .  S
C1031      C1032   1.411       .  A
C1032     Br1033   1.932       .  S
C1037      C1038   1.410       .  A
C1037      C1042   1.408       .  A
C1037     Br1044   1.932       .  S
C1038      C1039   1.411       .  A
C1039      C1040   1.408       .  A
C1039     Br1046   1.933       .  S
C1040      C1041   1.414       .  A
C1040     Br1045   1.933       .  S
C1041      C1042   1.414       .  A
C1042     Br1043   1.933       .  S
C1047      C1048   1.410   1_455  A
C1047      C1052   1.405       .  A
C1047     Br1054   1.934       .  S
C1048      C1049   1.409       .  A
C1049      C1050   1.408   1_655  A
C1049     Br1056   1.933       .  S
C1050      C1051   1.413       .  A
C1050     Br1055   1.933       .  S
C1051      C1052   1.411       .  A
C1052     Br1053   1.932       .  S
