geometry optimzed in LAMMPS
_audit_creation_date              2020-12-01 
_audit_creation_method            'lammps2cif' 
_symmetry_space_group_name_H-M    'P1' 
_symmetry_Int_Tables_number       1 
_symmetry_cell_setting            triclinic 
loop_ 
_symmetry_equiv_pos_as_xyz 
  x,y,z 
_cell_length_a                    28.98441562 
_cell_length_b                    28.849225579649314 
_cell_length_c                    55.052749067470714 
_cell_angle_alpha                 89.8670794566336 
_cell_angle_beta                  89.86432743233988 
_cell_angle_gamma                 89.93523667923536 
loop_ 
_atom_site_label 
_atom_site_type_symbol 
_atom_site_fract_x 
_atom_site_fract_y 
_atom_site_fract_z 
_atom_site_charge 
O1          O  0.70020897  0.03545327  0.64357492    -0.70900
O2          O  0.82756467  0.02952502  0.62336244    -0.71200
O3          O  0.74502642  0.01280429  0.60296837    -0.71000
O4          O  0.78361446  0.05599710  0.66403101    -0.71000
O5          O  0.79387991  0.98576878  0.67682920    -0.71000
O6          O  0.74383235  0.94171621  0.61594938    -0.71000
O7          O  0.82766413  0.95706164  0.63407773    -0.71000
O8          O  0.70779681  0.96698214  0.65948071    -0.71100
V9          V  0.76407805  0.03221303  0.63386879     1.35200
V10         V  0.76801926  0.96426496  0.64647670     1.35200
C11         C  0.68223335  0.00100568  0.65453391     0.78300
C12         C  0.84855050  0.99086264  0.62473823     0.78400
C13         C  0.73740961  0.97065687  0.59876152     0.78200
C14         C  0.79871944  0.02919076  0.68027373     0.78200
O15         O  0.92507501  0.27912663  0.86825736    -0.70900
O16         O  0.92237184  0.15057531  0.88764036    -0.71200
O17         O  0.93952408  0.23180813  0.90974266    -0.71000
O18         O  0.90498890  0.19677185  0.84605798    -0.71000
O19         O  0.97654638  0.18501515  0.83646958    -0.71000
O20         O  0.01192239  0.22854441  0.89991104    -0.71000
O21         O  0.99574415  0.14676106  0.87964317    -0.71000
O22         O  0.99569682  0.26900615  0.85635806    -0.71100
V23         V  0.92423812  0.21459566  0.87762677     1.35200
V24         V  0.99349635  0.20776745  0.86815362     1.35200
C25         C  0.96195629  0.29601539  0.85932844     0.78300
C26         C  0.95982463  0.12762196  0.88753184     0.78400
C27         C  0.98116799  0.23544922  0.91603692     0.78200
C28         C  0.93410098  0.18215330  0.83076829     0.78200
O29         O  0.32922316  0.88253174  0.65061793    -0.70900
O30         O  0.20375153  0.87605136  0.62869123    -0.71200
O31         O  0.28531760  0.89885446  0.60872531    -0.71000
O32         O  0.24657542  0.85725508  0.67074426    -0.71000
O33         O  0.23320302  0.92793803  0.68193724    -0.71000
O34         O  0.27599610  0.97049980  0.61970485    -0.71000
O35         O  0.19526247  0.94820254  0.63906782    -0.71000
O36         O  0.31667027  0.95278231  0.66289160    -0.71100
V37         V  0.26620763  0.87994406  0.64007000     1.35200
V38         V  0.25580795  0.94837673  0.65086121     1.35200
C39         C  0.34469408  0.91990007  0.65965403     0.78300
C40         C  0.17883136  0.91220038  0.62961488     0.78400
C41         C  0.28586906  0.94132042  0.60325238     0.78200
C42         C  0.23041764  0.88477586  0.68641649     0.78200
O43         O  0.08545308  0.64771665  0.87400925    -0.70900
O44         O  0.08747302  0.77569095  0.89427429    -0.71200
O45         O  0.06762102  0.69385983  0.91525512    -0.71000
O46         O  0.10819848  0.73041478  0.85308272    -0.71000
O47         O  0.03781638  0.74321930  0.84182717    -0.71000
O48         O  0.99606539  0.69782201  0.90408022    -0.71000
O49         O  0.01492220  0.78031524  0.88477308    -0.71000
O50         O  0.01604865  0.65890384  0.86065571    -0.71100
V51         V  0.08591215  0.71193652  0.88386528     1.35200
V52         V  0.01763683  0.71966737  0.87292465     1.35200
C53         C  0.04933378  0.63151790  0.86406280     0.78300
C54         C  0.05030404  0.79907402  0.89345726     0.78400
C55         C  0.02552339  0.68985569  0.92065761     0.78200
C56         C  0.08082229  0.74578482  0.83722848     0.78200
O57         O  0.06980715  0.25369663  0.14492763    -0.70900
O58         O  0.07697143  0.12400522  0.12914629    -0.71200
O59         O  0.06051627  0.20308404  0.10460254    -0.71000
O60         O  0.08898587  0.17402187  0.16973582    -0.71000
O61         O  0.01706365  0.16095789  0.17793635    -0.71000
O62         O  0.98716861  0.19975748  0.11243740    -0.71000
O63         O  0.00296049  0.11916652  0.13508831    -0.71000
O64         O  0.99838073  0.24370437  0.15558831    -0.71100
V65         V  0.07268581  0.18864205  0.13737759     1.35200
V66         V  0.00273779  0.18129730  0.14520755     1.35200
C67         C  0.03210995  0.27079234  0.15264747     0.78300
C68         C  0.04022398  0.10012054  0.12891059     0.78400
C69         C  0.01957678  0.20663500  0.09718637     0.78200
C70         C  0.05908146  0.15957474  0.18466038     0.78200
O71         O  0.29824280  0.02222921  0.37483896    -0.70900
O72         O  0.16907222  0.02758186  0.39161134    -0.71200
O73         O  0.24846234  0.01168388  0.41517102    -0.71000
O74         O  0.21806724  0.04226537  0.35087770    -0.71000
O75         O  0.20367359  0.97042800  0.34248188    -0.71000
O76         O  0.24853152  0.93825756  0.40694885    -0.71000
O77         O  0.16634136  0.95303968  0.38636787    -0.71000
O78         O  0.28788350  0.95150939  0.36280612    -0.71100
V79         V  0.23344814  0.02462380  0.38281175     1.35200
V80         V  0.22691049  0.95462050  0.37464182     1.35200
C81         C  0.31512047  0.98468488  0.36654454     0.78300
C82         C  0.14654791  0.98982889  0.39270492     0.78400
C83         C  0.25474482  0.97071354  0.42230494     0.78200
C84         C  0.20190601  0.01304823  0.33620025     0.78200
O85         O  0.66921440  0.85723490  0.37510594    -0.70900
O86         O  0.79796165  0.85612645  0.39191686    -0.71200
O87         O  0.71793751  0.87537444  0.41492391    -0.71000
O88         O  0.75004314  0.83489774  0.35176687    -0.71000
O89         O  0.76239092  0.90580199  0.34049338    -0.71000
O90         O  0.71857817  0.94706341  0.40288182    -0.71000
O91         O  0.80054781  0.92944930  0.38281380    -0.71000
O92         O  0.67831334  0.92630166  0.36014883    -0.71100
V93         V  0.73377750  0.85709222  0.38306399     1.35200
V94         V  0.73961151  0.92571683  0.37167133     1.35200
C95         C  0.65172501  0.89327019  0.36547290     0.78300
C96         C  0.82046970  0.89381804  0.39073702     0.78400
C97         C  0.71232433  0.91767594  0.41982279     0.78200
C98         C  0.76510574  0.86269121  0.33586507     0.78200
O99         O  0.91056201  0.62565129  0.14796960    -0.70900
O100        O  0.90143011  0.75365045  0.12815519    -0.71200
O101        O  0.92468759  0.67321898  0.10661126    -0.71000
O102        O  0.88484541  0.70721745  0.16959175    -0.71000
O103        O  0.95530772  0.72017230  0.18065299    -0.71000
O104        O  0.99606471  0.68360917  0.11709844    -0.71000
O105        O  0.97312212  0.76280166  0.13859263    -0.71000
O106        O  0.98079302  0.63882129  0.15936461    -0.71100
V107        V  0.90663280  0.68996585  0.13843520     1.35200
V108        V  0.97484765  0.70079817  0.14884614     1.35200
C109        C  0.94851100  0.61014281  0.15625755     0.78300
C110        C  0.93680143  0.77942494  0.12967082     0.78400
C111        C  0.96677964  0.67377352  0.10078588     0.78200
C112        C  0.91243368  0.72250688  0.18537471     0.78200
C113        C  0.81152045  0.78029102  0.28698194    -0.13500
C114        C  0.83942026  0.80962256  0.27299334     0.16900
C115        C  0.84152443  0.85703349  0.27913227     0.03100
C116        C  0.81628913  0.87398862  0.29918230    -0.12000
C117        C  0.78816580  0.84455667  0.31332967    -0.03100
C118        C  0.78601033  0.79701870  0.30680144     0.02400
C119        C  0.86058099  0.79059731  0.25037979     0.09200
N120        N  0.86799670  0.88861179  0.26476616     0.65600
H121        H  0.81900102  0.91043695  0.30376217     0.18500
N122        N  0.75692647  0.76522880  0.31955353     0.76100
H123        H  0.80861674  0.74398488  0.28207328     0.10000
C124        C  0.90713331  0.77632675  0.24889706     0.03700
C125        C  0.92365455  0.75417908  0.22774833    -0.05000
C126        C  0.89422963  0.74493952  0.20801162    -0.23400
C127        C  0.84761419  0.75982680  0.20969773     0.13000
C128        C  0.83160211  0.78234766  0.23059253    -0.12500
N129        N  0.93754060  0.78247928  0.26900498     0.64600
H130        H  0.95950655  0.74347245  0.22696458     0.12500
N131        N  0.81577800  0.75279146  0.19027999     0.61300
H132        H  0.79567354  0.79283700  0.23155432     0.08600
O133        O  0.77459305  0.73695970  0.33438959    -0.40200
O134        O  0.71639598  0.75844144  0.31205118    -0.39400
O135        O  0.84861953  0.91083516  0.24785724    -0.39400
O136        O  0.90730657  0.90114555  0.27200959    -0.37100
O137        O  0.78977414  0.71774976  0.19059104    -0.38000
O138        O  0.80746728  0.78547554  0.17566566    -0.34100
O139        O  0.94236552  0.75008153  0.28422660    -0.35500
O140        O  0.96624950  0.81531429  0.26868588    -0.39800
C141        C  0.03827621  0.93495177  0.41597282    -0.13500
C142        C  0.00539568  0.95640736  0.40125685     0.16900
C143        C  0.01791424  0.99579034  0.38748593     0.03100
C144        C  0.06412515  0.01042156  0.38693185    -0.12000
C145        C  0.09782175  0.98635155  0.40012828    -0.03100
C146        C  0.08413767  0.94968644  0.41562138     0.02400
C147        C  0.95890571  0.93566982  0.39983029     0.09200
N148        N  0.98438887  0.02021121  0.37342501     0.65600
H149        H  0.07417072  0.03837300  0.37480260     0.18500
N150        N  0.11717980  0.92514056  0.42995626     0.76100
H151        H  0.02865776  0.90529519  0.42704783     0.10000
C152        C  0.94726144  0.90449346  0.38111733     0.03700
C153        C  0.90257689  0.88605221  0.37999839    -0.05000
C154        C  0.86928906  0.89821570  0.39735307    -0.23400
C155        C  0.88186267  0.92732728  0.41679297     0.13000
C156        C  0.92652912  0.94558013  0.41796968    -0.12500
N157        N  0.97999311  0.89255592  0.36270904     0.64600
H158        H  0.89294163  0.86483077  0.36456843     0.12500
N159        N  0.84865589  0.94092497  0.43462473     0.61300
H160        H  0.93558951  0.96870052  0.43272318     0.08600
O161        O  0.12982321  0.88513336  0.42352366    -0.40200
O162        O  0.12573602  0.93885520  0.45122005    -0.39400
O163        O  0.96359211  0.05432752  0.38268796    -0.39400
O164        O  0.98267048  0.01409748  0.35076371    -0.37100
O165        O  0.84330302  0.91647190  0.45345067    -0.38000
O166        O  0.83192454  0.98128983  0.43394411    -0.34100
O167        O  0.00209156  0.85499008  0.36438600    -0.35500
O168        O  0.97994392  0.91432873  0.34280892    -0.39800
C169        C  0.53657317  0.94275084  0.34529231    -0.13500
C170        C  0.50834722  0.93177513  0.36520530     0.16900
C171        C  0.52636540  0.90321217  0.38379603     0.03100
C172        C  0.57231434  0.88764113  0.38253057    -0.12000
C173        C  0.60113384  0.90020107  0.36306899    -0.03100
C174        C  0.58250185  0.92748152  0.34411514     0.02400
C175        C  0.45950113  0.94802176  0.36517940     0.09200
N176        N  0.49846478  0.88945505  0.40398028     0.65600
H177        H  0.58610748  0.86718156  0.39740555     0.18500
N178        N  0.60973986  0.93958455  0.32339367     0.76100
H179        H  0.52286308  0.96368014  0.33056702     0.10000
C180        C  0.44331312  0.98355226  0.38065344     0.03700
C181        C  0.39677619  0.99757610  0.37967829    -0.05000
C182        C  0.36565751  0.97673933  0.36349021    -0.23400
C183        C  0.38257398  0.94222278  0.34749896     0.13000
C184        C  0.42892142  0.92844311  0.34845914    -0.12500
N185        N  0.47367904  0.00597591  0.39729835     0.64600
H186        H  0.38456014  0.02365617  0.39232973     0.12500
N187        N  0.35304643  0.92055136  0.33016306     0.61300
H188        H  0.44108191  0.90172657  0.33615361     0.08600
O189        O  0.62514727  0.98028673  0.32127903    -0.40200
O190        O  0.61047702  0.91287789  0.30527868    -0.39400
O191        O  0.47325664  0.85402820  0.40210234    -0.39400
O192        O  0.50734968  0.90521429  0.42481195    -0.37100
O193        O  0.34897421  0.93810888  0.30926634    -0.38000
O194        O  0.33902506  0.87975928  0.33393088    -0.34100
O195        O  0.49683437  0.04045960  0.39018915    -0.35500
O196        O  0.46910757  0.99869490  0.41978357    -0.39800
C197        C  0.94226888  0.90878936  0.13246692    -0.13500
C198        C  0.97544659  0.91730965  0.11435541     0.16900
C199        C  0.98713317  0.88151022  0.09809208     0.03100
C200        C  0.96833611  0.83718015  0.10143065    -0.12000
C201        C  0.93858383  0.82763752  0.12098012    -0.03100
C202        C  0.92410607  0.86426769  0.13603137     0.02400
C203        C  0.00099588  0.96185540  0.11492520     0.09200
N204        N  0.02199358  0.88801637  0.08000988     0.65600
H205        H  0.98076678  0.80892252  0.09017700     0.18500
N206        N  0.89515733  0.85582863  0.15659977     0.76100
H207        H  0.93291324  0.93617633  0.14502982     0.10000
C208        C  0.99585968  0.99596510  0.09674615     0.03700
C209        C  0.01474566  0.04013845  0.10028760    -0.05000
C210        C  0.03848311  0.05113059  0.12167356    -0.23400
C211        C  0.04682429  0.01599335  0.13887535     0.13000
C212        C  0.02813517  0.97175871  0.13536931    -0.12500
N213        N  0.96774905  0.98790287  0.07590464     0.64600
H214        H  0.00746311  0.06735365  0.08709672     0.12500
N215        N  0.07022368  0.02601462  0.16104678     0.61300
H216        H  0.03273601  0.94555794  0.14939511     0.08600
O217        O  0.85356746  0.86870575  0.15599025    -0.40200
O218        O  0.91323561  0.84555324  0.17673869    -0.39400
O219        O  0.06391127  0.88644288  0.08610019    -0.39400
O220        O  0.01146706  0.88494538  0.05784598    -0.37100
O221        O  0.11290497  0.01806797  0.16271821    -0.38000
O222        O  0.04714118  0.03417046  0.18000830    -0.34100
O223        O  0.92476149  0.99428346  0.07739680    -0.35500
O224        O  0.98643709  0.98555867  0.05521931    -0.39800
C225        C  0.03243817  0.40254685  0.14556295    -0.13500
C226        C  0.00100861  0.41588399  0.16372038     0.16900
C227        C  0.98302425  0.38162133  0.17935119     0.03100
C228        C  0.99532071  0.33492772  0.17611380    -0.12000
C229        C  0.02570617  0.32122695  0.15748498    -0.03100
C230        C  0.04468289  0.35579605  0.14223208     0.02400
C231        C  0.98534650  0.46513663  0.16492822     0.09200
N232        N  0.95214015  0.39373804  0.19857017     0.65600
H233        H  0.98027795  0.30899477  0.18803512     0.18500
N234        N  0.07237750  0.34366261  0.12171749     0.76100
H235        H  0.04588642  0.42842644  0.13309087     0.10000
C236        C  0.01627587  0.50086091  0.17083407     0.03700
C237        C  0.00230912  0.54723683  0.16919555    -0.05000
C238        C  0.95786467  0.55977402  0.16106712    -0.23400
C239        C  0.92633530  0.52374118  0.15576930     0.13000
C240        C  0.94017373  0.47701951  0.15797988    -0.12500
N241        N  0.06255884  0.49060805  0.17794216     0.64600
H242        H  0.02750636  0.57373988  0.17352008     0.12500
N243        N  0.88111103  0.53372015  0.14693795     0.61300
H244        H  0.91607950  0.44980913  0.15311902     0.08600
O245        O  0.11515679  0.35163790  0.12208239    -0.40200
O246        O  0.05297253  0.33511096  0.10173391    -0.39400
O247        O  0.90955267  0.38590660  0.19630455    -0.39400
O248        O  0.96815735  0.40361411  0.21920956    -0.37100
O249        O  0.87430676  0.53604006  0.12433586    -0.38000
O250        O  0.84704493  0.53071094  0.16116174    -0.34100
O251        O  0.09473825  0.49427981  0.16258139    -0.35500
O252        O  0.07223798  0.48730332  0.20020962    -0.39800
C253        C  0.06633438  0.09238355  0.24546214    -0.13500
C254        C  0.11407808  0.09402039  0.25002633     0.16900
C255        C  0.14226505  0.11913419  0.23385370     0.03100
C256        C  0.12296356  0.14161739  0.21366936    -0.12000
C257        C  0.07533208  0.13955099  0.20850581    -0.03100
C258        C  0.04680624  0.11467513  0.22495457     0.02400
C259        C  0.13430083  0.07178895  0.27225634     0.09200
N260        N  0.19110976  0.12076184  0.23719890     0.65600
H261        H  0.14617672  0.15991231  0.20151403     0.18500
N262        N  0.99823346  0.11107573  0.22105705     0.76100
H263        H  0.04403145  0.07368253  0.25792089     0.10000
C264        C  0.14343953  0.09835546  0.29308889     0.03700
C265        C  0.16550517  0.07821808  0.31316786    -0.05000
C266        C  0.17904696  0.03115424  0.31347905    -0.23400
C267        C  0.16912113  0.00420342  0.29270108     0.13000
C268        C  0.14719959  0.02467371  0.27233023    -0.12500
N269        N  0.13001197  0.14599538  0.29424682     0.64600
H270        H  0.17157814  0.09995729  0.32888426     0.12500
N271        N  0.18229095  0.95658538  0.29162450     0.61300
H272        H  0.14081325  0.00380287  0.25633079     0.08600
O273        O  0.97168152  0.14115811  0.23009297    -0.40200
O274        O  0.98151731  0.07347128  0.21343732    -0.39400
O275        O  0.21601235  0.08960015  0.22786865    -0.39400
O276        O  0.20965107  0.15761096  0.24465223    -0.37100
O277        O  0.15267942  0.92556635  0.29586109    -0.38000
O278        O  0.22043696  0.94560297  0.28215324    -0.34100
O279        O  0.09182423  0.15665523  0.30377265    -0.35500
O280        O  0.15961146  0.17722003  0.29043046    -0.39800
C281        C  0.96574999  0.68553588  0.98267193    -0.13500
C282        C  0.00220170  0.66994089  0.99737552     0.16900
C283        C  0.04358714  0.65574239  0.98624504     0.00700
C284        C  0.04898765  0.66036671  0.96111940    -0.12000
C285        C  0.01348334  0.67803175  0.94630009    -0.03100
C286        C  0.97066160  0.68898630  0.95727465     0.02400
C287        C  0.99626511  0.66837571  0.02421441     0.09200
N288        N  0.07997605  0.63520117  0.00008370     0.65600
H289        H  0.08175248  0.65021070  0.95315548     0.18500
N290        N  0.93203167  0.70380355  0.94313836     0.76100
H291        H  0.93322249  0.69529125  0.99103014     0.10000
C292        C  0.02299084  0.69621733  0.03989992     0.03700
C293        C  0.01543115  0.69446165  0.06509170    -0.05000
C294        C  0.98028699  0.66681847  0.07501980    -0.23400
C295        C  0.95411749  0.63847261  0.05929282     0.13000
C296        C  0.96253888  0.63924875  0.03421276    -0.12500
N297        N  0.05476773  0.72959358  0.03042293     0.64600
H298        H  0.03480404  0.71759437  0.07675918     0.12500
N299        N  0.91864946  0.60883421  0.06847997     0.61300
H300        H  0.94203592  0.61745154  0.02238062     0.08600
O301        O  0.91246034  0.74172546  0.94807970    -0.40200
O302        O  0.91103124  0.67452125  0.93026535    -0.39400
O303        O  0.07634383  0.59347766  0.00673818    -0.39400
O304        O  0.11904490  0.65443187  0.00058953    -0.37100
O305        O  0.87699819  0.62110088  0.06663722    -0.38000
O306        O  0.92807481  0.56717413  0.07344356    -0.34100
O307        O  0.03938342  0.76615595  0.02074390    -0.35500
O308        O  0.09663419  0.72775668  0.03658972    -0.39800
C309        C  0.31987010  0.93433152  0.53691031    -0.13500
C310        C  0.28734577  0.96412016  0.52635328     0.16900
C311        C  0.25930476  0.99167022  0.54165503     0.03100
C312        C  0.26283347  0.98730195  0.56701735    -0.12000
C313        C  0.29309321  0.95501329  0.57752833    -0.03100
C314        C  0.32295365  0.92956965  0.56221201     0.02400
C315        C  0.28210462  0.96441416  0.49944540     0.09200
N316        N  0.22408309  0.02085836  0.53181479     0.65600
H317        H  0.23890861  0.00635113  0.57844964     0.18500
N318        N  0.35616044  0.89818061  0.57210707     0.76100
H319        H  0.34226273  0.91370907  0.52538194     0.10000
C320        C  0.29439790  0.00328953  0.48543792     0.03700
C321        C  0.28730529  0.00293447  0.46031546    -0.05000
C322        C  0.26844768  0.96419756  0.44828082    -0.23400
C323        C  0.25864010  0.92415036  0.46218809     0.13000
C324        C  0.26508863  0.92484795  0.48757536    -0.12500
N325        N  0.31519241  0.04303471  0.49633765     0.64600
H326        H  0.29642505  0.03384983  0.45011523     0.12500
N327        N  0.24152671  0.88292547  0.45109291     0.61300
H328        H  0.25647151  0.89428114  0.49817364     0.08600
O329        O  0.39667453  0.91218398  0.57606356    -0.40200
O330        O  0.34793686  0.85524199  0.57214599    -0.39400
O331        O  0.18643706  0.00301068  0.52519903    -0.39400
O332        O  0.22612929  0.06406500  0.53515320    -0.37100
O333        O  0.26904402  0.85738611  0.43939677    -0.38000
O334        O  0.20330214  0.86653075  0.45794421    -0.34100
O335        O  0.35780069  0.04237055  0.50097591    -0.35500
O336        O  0.29414750  0.08134633  0.49600249    -0.39800
C337        C  0.16440810  0.79389033  0.78936828    -0.13500
C338        C  0.13451629  0.81282479  0.77204421     0.16900
C339        C  0.08645024  0.80971590  0.77618567     0.03100
C340        C  0.06951230  0.78757349  0.79729137    -0.12000
C341        C  0.09957752  0.76785053  0.81452623    -0.03100
C342        C  0.14781492  0.77176624  0.81029034     0.02400
C343        C  0.15541543  0.83210058  0.74929087     0.09200
N344        N  0.05429021  0.82708157  0.75877862     0.65600
H345        H  0.03254328  0.78546913  0.80004881     0.18500
N346        N  0.18093485  0.75357244  0.82698548     0.76100
H347        H  0.20138095  0.79593719  0.78649636     0.10000
C348        C  0.15437904  0.87974685  0.74327728     0.03700
C349        C  0.17947755  0.89629546  0.72307493    -0.05000
C350        C  0.20634234  0.86641097  0.70859654    -0.23400
C351        C  0.20670043  0.81855464  0.71462173     0.13000
C352        C  0.18150397  0.80220409  0.73464166    -0.12500
N353        N  0.12980879  0.91211492  0.75805104     0.64600
H354        H  0.17806128  0.93307050  0.71879258     0.12500
N355        N  0.23321729  0.78591972  0.70096605     0.61300
H356        H  0.18307808  0.76549524  0.73912418     0.08600
O357        O  0.19779560  0.71382876  0.82337755    -0.40200
O358        O  0.20036147  0.78054602  0.84178621    -0.39400
O359        O  0.04293315  0.80179921  0.74111054    -0.39400
O360        O  0.02931631  0.86138904  0.76422763    -0.37100
O361        O  0.27341599  0.77560058  0.70788739    -0.38000
O362        O  0.21349105  0.76092485  0.68534484    -0.34100
O363        O  0.14840794  0.92717686  0.77716299    -0.35500
O364        O  0.09565013  0.93344320  0.74925944    -0.39800
C365        C  0.97653911  0.20507217  0.03159926    -0.13500
C366        C  0.00895828  0.23404638  0.02011235     0.16900
C367        C  0.04215250  0.25664590  0.03449194     0.03100
C368        C  0.04390799  0.24801229  0.05957491    -0.12000
C369        C  0.01198494  0.21844276  0.07111941    -0.03100
C370        C  0.97753781  0.19737824  0.05684208     0.02400
C371        C  0.00641674  0.24066957  0.99325315     0.09200
N372        N  0.07295906  0.28995449  0.02413129     0.65600
H373        H  0.07054172  0.26483715  0.07018608     0.18500
N374        N  0.94507717  0.16597841  0.06735434     0.76100
H375        H  0.95054607  0.18771254  0.02077910     0.10000
C376        C  0.04057350  0.22360137  0.97719663     0.03700
C377        C  0.03367483  0.22598049  0.95189530    -0.05000
C378        C  0.99252943  0.24383970  0.94213566    -0.23400
C379        C  0.95975606  0.26330404  0.95833778     0.13000
C380        C  0.96705534  0.26162570  0.98347816    -0.12500
N381        N  0.08037118  0.19997036  0.98622778     0.64600
H382        H  0.05919125  0.21057946  0.93993880     0.12500
N383        N  0.91840403  0.28454950  0.94967829     0.61300
H384        H  0.94089975  0.27558110  0.99556340     0.08600
O385        O  0.95107239  0.12294301  0.06482372    -0.40200
O386        O  0.90597511  0.18085770  0.07377288    -0.39400
O387        O  0.05901560  0.33094482  0.02085362    -0.39400
O388        O  0.11571915  0.28173114  0.02380532    -0.37100
O389        O  0.88139043  0.26155847  0.94975042    -0.38000
O390        O  0.91642814  0.32816478  0.94844596    -0.34100
O391        O  0.07670687  0.15837835  0.99310341    -0.35500
O392        O  0.11993421  0.21650408  0.98215648    -0.39800
C393        C  0.01391240  0.02289504  0.91557981    -0.13500
C394        C  0.99897455  0.98847302  0.89961831     0.16900
C395        C  0.96430380  0.99884922  0.88249457     0.03100
C396        C  0.94695818  0.04412892  0.88066831    -0.12000
C397        C  0.96396596  0.07928906  0.89567569    -0.03100
C398        C  0.99673265  0.06810151  0.91372458     0.02400
C399        C  0.01812905  0.94119393  0.90169830     0.09200
N400        N  0.94868981  0.96439266  0.86583482     0.65600
H401        H  0.92302059  0.05260095  0.86618527     0.18500
N402        N  0.01460886  0.10307320  0.92944613     0.76100
H403        H  0.03975778  0.01484422  0.92919031     0.10000
C404        C  0.06003664  0.92839952  0.89044541     0.03700
C405        C  0.07385208  0.88168041  0.89034888    -0.05000
C406        C  0.04616451  0.84770794  0.90131387    -0.23400
C407        C  0.00637848  0.86154131  0.91432647     0.13000
C408        C  0.99265116  0.90791199  0.91430730    -0.12500
N409        N  0.08695040  0.96184920  0.87755569     0.64600
H410        H  0.10398706  0.87150441  0.87988254     0.12500
N411        N  0.97784095  0.82821072  0.92630993     0.61300
H412        H  0.96085879  0.91774223  0.92343447     0.08600
O413        O  0.05469670  0.11871510  0.92588428    -0.40200
O414        O  0.99417420  0.11174003  0.94918531    -0.39400
O415        O  0.90914737  0.94681405  0.86843697    -0.39400
O416        O  0.97138418  0.95661871  0.84668220    -0.37100
O417        O  0.98831336  0.81471178  0.94740688    -0.38000
O418        O  0.93811916  0.81984668  0.91808430    -0.34100
O419        O  0.12371041  0.97697860  0.88683929    -0.35500
O420        O  0.07837451  0.97009884  0.85550574    -0.39800
C421        C  0.05494857  0.49876272  0.86369190    -0.13500
C422        C  0.01540534  0.48833449  0.84999366     0.16900
C423        C  0.99122983  0.52473450  0.83877213     0.03100
C424        C  0.00535386  0.57059870  0.84222406    -0.12000
C425        C  0.04300925  0.58177291  0.85728109    -0.03100
C426        C  0.06877785  0.54498922  0.86755376     0.02400
C427        C  0.99762773  0.43995167  0.84931153     0.09200
N428        N  0.95124788  0.51575932  0.82441914     0.65600
H429        H  0.98518273  0.59789611  0.83377687     0.18500
N430        N  0.10670783  0.55381907  0.88338744     0.76100
H431        H  0.07380276  0.47093581  0.87251025     0.10000
C432        C  0.02148213  0.40472524  0.83693671     0.03700
C433        C  0.00683142  0.35862975  0.83899676    -0.05000
C434        C  0.96862975  0.34620271  0.85351724    -0.23400
C435        C  0.94298267  0.38204486  0.86468399     0.13000
C436        C  0.95767623  0.42836956  0.86249680    -0.12500
N437        N  0.06128434  0.41513328  0.82259382     0.64600
H438        H  0.02686701  0.33205106  0.82985874     0.12500
N439        N  0.90429696  0.37191026  0.87986053     0.61300
H440        H  0.93889760  0.45529902  0.87208549     0.08600
O441        O  0.14737363  0.54812526  0.87571926    -0.40200
O442        O  0.09957312  0.55762925  0.90591610    -0.39400
O443        O  0.91170856  0.52133695  0.83360332    -0.39400
O444        O  0.95530468  0.51172525  0.80169998    -0.37100
O445        O  0.90972763  0.37014050  0.90255949    -0.38000
O446        O  0.86408640  0.37533045  0.87131466    -0.34100
O447        O  0.10095707  0.40818810  0.83126484    -0.35500
O448        O  0.05682263  0.42228654  0.80010297    -0.39800
C449        C  0.67840983  0.90884155  0.48629111    -0.13500
C450        C  0.70252565  0.94629292  0.49621055     0.16900
C451        C  0.72438594  0.97808237  0.48031077     0.03100
C452        C  0.72303293  0.97085151  0.45506465    -0.12000
C453        C  0.70196163  0.93135281  0.44529759    -0.03100
C454        C  0.67789488  0.90114390  0.46115984     0.02400
C455        C  0.70668187  0.94981790  0.52312467     0.09200
N456        N  0.75196724  0.01510487  0.48953444     0.65600
H457        H  0.74195166  0.99422153  0.44321698     0.18500
N458        N  0.65301323  0.86219500  0.45202001     0.76100
H459        H  0.66073248  0.88466590  0.49824244     0.10000
C460        C  0.68688156  0.98673514  0.53620967     0.03700
C461        C  0.69481450  0.99061755  0.56121444    -0.05000
C462        C  0.72209226  0.95816804  0.57384297    -0.23400
C463        C  0.73959004  0.91967431  0.56102111     0.13000
C464        C  0.73173413  0.91582226  0.53587715    -0.12500
N465        N  0.65848173  0.02048086  0.52444200     0.64600
H466        H  0.68043718  0.02016456  0.57077716     0.12500
N467        N  0.76843832  0.88633855  0.57272321     0.61300
H468        H  0.74686878  0.88701033  0.52604403     0.08600
O469        O  0.61167715  0.86736881  0.44540435    -0.40200
O470        O  0.66875415  0.82184090  0.45519410    -0.39400
O471        O  0.79037152  0.00593661  0.49918131    -0.39400
O472        O  0.74329357  0.05625548  0.48318213    -0.37100
O473        O  0.75161864  0.84786016  0.57909651    -0.38000
O474        O  0.81167016  0.89103476  0.57170900    -0.34100
O475        O  0.61604936  0.01226368  0.52177310    -0.35500
O476        O  0.67279097  0.06158906  0.52233756    -0.39800
C477        C  0.05023095  0.89686090  0.62385145    -0.13500
C478        C  0.03834404  0.93790478  0.61127957     0.16900
C479        C  0.07411680  0.96563528  0.60165319     0.03100
C480        C  0.12006554  0.95424679  0.60634882    -0.12000
C481        C  0.13166052  0.91482786  0.61995602    -0.03100
C482        C  0.09658366  0.88472591  0.62778723     0.02400
C483        C  0.98933488  0.95399593  0.61078766     0.09200
N484        N  0.06439943  0.00621105  0.58760226     0.65600
H485        H  0.14704013  0.97739735  0.60001043     0.18500
N486        N  0.10741676  0.84395759  0.64143683     0.76100
H487        H  0.02357655  0.87543359  0.63188730     0.10000
C488        C  0.95292088  0.92382434  0.60468974     0.03700
C489        C  0.90726199  0.93827703  0.60770823    -0.05000
C490        C  0.89638265  0.98277615  0.61635199    -0.23400
C491        C  0.93241955  0.01418374  0.62078077     0.13000
C492        C  0.97837340  0.99930452  0.61852614    -0.12500
N493        N  0.96158339  0.87808948  0.59582764     0.64600
H494        H  0.87983348  0.91365761  0.60400615     0.12500
N495        N  0.92304534  0.05998298  0.62924541     0.61300
H496        H  0.00561884  0.02285995  0.62394926     0.08600
O497        O  0.11413263  0.84666813  0.66402747    -0.40200
O498        O  0.11638164  0.80665453  0.63046368    -0.39400
O499        O  0.07576293  0.04553706  0.59560185    -0.39400
O500        O  0.05341886  0.00202418  0.56555782    -0.37100
O501        O  0.92662137  0.06902388  0.65157051    -0.38000
O502        O  0.91952618  0.09272217  0.61412195    -0.34100
O503        O  0.95056101  0.84355579  0.60870451    -0.35500
O504        O  0.97007611  0.87233470  0.57355317    -0.39800
C505        C  0.45785733  0.97776908  0.67724976    -0.13500
C506        C  0.48949798  0.95278104  0.66317794     0.16900
C507        C  0.47421185  0.91308495  0.65064095     0.03100
C508        C  0.42730548  0.90086069  0.65108385    -0.12000
C509        C  0.39490345  0.92741418  0.66404206    -0.03100
C510        C  0.41106580  0.96539524  0.67794293     0.02400
C511        C  0.53815895  0.96890062  0.66173838     0.09200
N512        N  0.50589949  0.88494214  0.63730495     0.65600
H513        H  0.41597108  0.87149068  0.64036222     0.18500
N514        N  0.38042055  0.99200495  0.69277302     0.76100
H515        H  0.46947411  0.00765345  0.68749745     0.10000
C516        C  0.55447141  0.99471677  0.64168811     0.03700
C517        C  0.60090034  0.00864390  0.64063368    -0.05000
C518        C  0.63186459  0.99694687  0.65925061    -0.23400
C519        C  0.61486822  0.97269495  0.67978691     0.13000
C520        C  0.56838085  0.95917699  0.68090058    -0.12500
N521        N  0.52442238  0.00632971  0.62206181     0.64600
H522        H  0.61334422  0.02645996  0.62452499     0.12500
N523        N  0.64450412  0.96137240  0.69964484     0.61300
H524        H  0.55597926  0.94020730  0.69665185     0.08600
O525        O  0.37280918  0.97938886  0.71437368    -0.40200
O526        O  0.36850734  0.03210349  0.68604233    -0.39400
O527        O  0.52495005  0.85100490  0.64775085    -0.39400
O528        O  0.50653765  0.88727451  0.61442177    -0.37100
O529        O  0.64833570  0.98945665  0.71705795    -0.38000
O530        O  0.65862481  0.92026403  0.70220640    -0.34100
O531        O  0.50268550  0.04422776  0.62250960    -0.35500
O532        O  0.52676879  0.98376262  0.60249478    -0.39800
C533        C  0.85678724  0.11521331  0.72368022    -0.13500
C534        C  0.86873527  0.08707893  0.74343104     0.16900
C535        C  0.85867565  0.03919800  0.74216273     0.03100
C536        C  0.83613419  0.02076427  0.72160959    -0.12000
C537        C  0.82290272  0.04923862  0.70202236    -0.03100
C538        C  0.83455369  0.09711868  0.70317989     0.02400
C539        C  0.88674089  0.10991641  0.76591084     0.09200
N540        N  0.86946617  0.00909178  0.76196428     0.65600
H541        H  0.82827203  0.98402620  0.72120681     0.18500
N542        N  0.82435096  0.12825833  0.68367104     0.76100
H543        H  0.86425035  0.15205222  0.72432719     0.10000
C544        C  0.93346538  0.10776466  0.77308933     0.03700
C545        C  0.94860543  0.13235701  0.79375463    -0.05000
C546        C  0.91808004  0.15985588  0.80756369    -0.23400
C547        C  0.87139973  0.16243619  0.79987842     0.13000
C548        C  0.85648245  0.13769451  0.77941854    -0.12500
N549        N  0.96627552  0.08200206  0.75919544     0.64600
H550        H  0.98448506  0.12956801  0.79910152     0.12500
N551        N  0.83848219  0.19062724  0.81235329     0.61300
H552        H  0.82069149  0.14054465  0.77386632     0.08600
O553        O  0.85504371  0.13730392  0.66807894    -0.40200
O554        O  0.78862989  0.15321976  0.68472912    -0.39400
O555        O  0.83964025  0.00217325  0.77829685    -0.39400
O556        O  0.90323114  0.98168008  0.76011238    -0.37100
O557        O  0.83175044  0.23172302  0.80529968    -0.38000
O558        O  0.80975527  0.17182953  0.82652914    -0.34100
O559        O  0.98750521  0.10178728  0.74203963    -0.35500
O560        O  0.98140405  0.04405742  0.76738837    -0.39800
loop_ 
_geom_bond_atom_site_label_1 
_geom_bond_atom_site_label_2 
_geom_bond_distance 
_geom_bond_site_symmetry_2 
_ccdc_geom_bond_type 
O1            V9   1.928       .  S
O1           C11   1.273       .  A
O2            V9   1.929       .  S
O2           C12   1.272   1_545  A
O3            V9   1.877       .  S
O3           C13   1.258   1_545  A
O4            V9   1.887       .  S
O4           C14   1.260       .  A
O5           V10   1.937       .  S
O5           C14   1.275   1_565  A
O6           V10   1.937       .  S
O6           C13   1.274       .  A
O7           V10   1.869       .  S
O7           C12   1.257       .  A
O8           V10   1.887       .  S
O8           C11   1.259   1_565  A
V9           V10   2.081   1_545  T
C11         C518   1.487   1_545  S
C12         C490   1.479       .  S
C13         C462   1.488       .  S
C14         C537   1.506       .  S
O15          V23   1.931       .  S
O15          C25   1.273       .  A
O16          V23   1.927       .  S
O16          C26   1.271       .  A
O17          V23   1.891       .  S
O17          C27   1.261       .  A
O18          V23   1.899       .  S
O18          C28   1.263       .  A
O19          V24   1.930       .  S
O19          C28   1.273       .  A
O20          V24   1.926   1_455  S
O20          C27   1.272   1_455  A
O21          V24   1.870       .  S
O21          C26   1.255       .  A
O22          V24   1.882       .  S
O22          C25   1.260       .  A
V23          V24   2.082       .  T
C25         C434   1.495       .  S
C26         C397   1.469       .  S
C27         C378   1.495       .  S
C28         C546   1.506       .  S
O29          V37   1.919       .  S
O29          C39   1.271       .  A
O30          V37   1.920       .  S
O30          C40   1.269       .  A
O31          V37   1.890       .  S
O31          C41   1.261       .  A
O32          V37   1.896       .  S
O32          C42   1.263       .  A
O33          V38   1.922       .  S
O33          C42   1.271       .  A
O34          V38   1.919       .  S
O34          C41   1.270       .  A
O35          V38   1.873       .  S
O35          C40   1.257       .  A
O36          V38   1.890       .  S
O36          C39   1.261       .  A
V37          V38   2.084       .  T
C39         C509   1.492       .  S
C40         C481   1.470       .  S
C41         C313   1.484       .  S
C42         C350   1.501       .  S
O43          V51   1.932       .  S
O43          C53   1.272       .  A
O44          V51   1.928       .  S
O44          C54   1.271       .  A
O45          V51   1.879       .  S
O45          C55   1.261       .  A
O46          V51   1.888       .  S
O46          C56   1.260       .  A
O47          V52   1.930       .  S
O47          C56   1.274       .  A
O48          V52   1.929   1_655  S
O48          C55   1.272   1_655  A
O49          V52   1.870       .  S
O49          C54   1.256       .  A
O50          V52   1.881       .  S
O50          C53   1.260       .  A
V51          V52   2.082       .  T
C53         C425   1.495       .  S
C54         C406   1.474       .  S
C55         C285   1.492       .  S
C56         C341   1.502       .  S
O57          V65   1.925       .  S
O57          C67   1.271       .  A
O58          V65   1.924       .  S
O58          C68   1.269       .  A
O59          V65   1.885       .  S
O59          C69   1.260       .  A
O60          V65   1.891       .  S
O60          C70   1.263       .  A
O61          V66   1.939       .  S
O61          C70   1.274       .  A
O62          V66   1.934   1_655  S
O62          C69   1.274   1_655  A
O63          V66   1.878       .  S
O63          C68   1.258       .  A
O64          V66   1.894   1_655  S
O64          C67   1.262   1_655  A
V65          V66   2.083       .  T
C67         C229   1.491       .  S
C68         C210   1.470       .  S
C69         C369   1.491       .  S
C70         C257   1.509       .  S
O71          V79   1.929       .  S
O71          C81   1.273   1_545  A
O72          V79   1.928       .  S
O72          C82   1.272   1_545  A
O73          V79   1.872       .  S
O73          C83   1.258   1_545  A
O74          V79   1.884       .  S
O74          C84   1.260       .  A
O75          V80   1.949       .  S
O75          C84   1.277   1_565  A
O76          V80   1.944       .  S
O76          C83   1.276       .  A
O77          V80   1.870       .  S
O77          C82   1.256       .  A
O78          V80   1.884       .  S
O78          C81   1.259       .  A
V79          V80   2.079   1_545  T
C81         C182   1.492       .  S
C82         C145   1.473       .  S
C83         C322   1.496       .  S
C84         C266   1.509       .  S
O85          V93   1.923       .  S
O85          C95   1.271       .  A
O86          V93   1.924       .  S
O86          C96   1.270       .  A
O87          V93   1.888       .  S
O87          C97   1.261       .  A
O88          V93   1.898       .  S
O88          C98   1.263       .  A
O89          V94   1.926       .  S
O89          C98   1.272       .  A
O90          V94   1.924       .  S
O90          C97   1.272       .  A
O91          V94   1.874       .  S
O91          C96   1.256       .  A
O92          V94   1.888       .  S
O92          C95   1.260       .  A
V93          V94   2.082       .  T
C95         C173   1.486       .  S
C96         C154   1.468       .  S
C97         C453   1.488       .  S
C98         C117   1.503       .  S
O99         V107   1.930       .  S
O99         C109   1.272       .  A
O100        V107   1.927       .  S
O100        C110   1.270       .  A
O101        V107   1.891       .  S
O101        C111   1.261       .  A
O102        V107   1.894       .  S
O102        C112   1.263       .  A
O103        V108   1.923       .  S
O103        C112   1.271       .  A
O104        V108   1.918       .  S
O104        C111   1.270       .  A
O105        V108   1.875       .  S
O105        C110   1.257       .  A
O106        V108   1.886       .  S
O106        C109   1.262       .  A
V107        V108   2.084       .  T
C109        C238   1.501       .  S
C110        C201   1.471       .  S
C111        C294   1.485       .  S
C112        C126   1.500       .  S
C113        C114   1.400       .  A
C113        C118   1.403       .  A
C113        H123   1.086       .  S
C114        C119   1.492       .  S
C114        C115   1.411       .  A
C115        C116   1.411       .  A
C115        N120   1.428       .  S
C116        C117   1.410       .  A
C116        H121   1.085       .  S
C117        C118   1.420       .  A
C118        N122   1.428       .  S
C119        C124   1.412       .  A
C119        C128   1.398       .  A
N120        O135   1.262       .  A
N120        O136   1.262       .  A
N122        O133   1.262       .  A
N122        O134   1.262       .  A
C124        C125   1.412       .  A
C124        N129   1.428       .  S
C125        C126   1.409       .  A
C125        H130   1.085       .  S
C126        C127   1.420       .  A
C127        C128   1.400       .  A
C127        N131   1.429       .  S
C128        H132   1.085       .  S
N129        O139   1.262       .  A
N129        O140   1.262       .  A
N131        O137   1.262       .  A
N131        O138   1.261       .  A
C141        C142   1.396       .  A
C141        C146   1.396       .  A
C141        H151   1.086       .  S
C142        C147   1.477   1_455  S
C142        C143   1.412       .  A
C143        C144   1.405   1_565  A
C143        N148   1.428   1_465  S
C144        C145   1.401   1_545  A
C144        H149   1.085       .  S
C145        C146   1.414       .  A
C146        N150   1.429       .  S
C147        C152   1.411       .  A
C147        C156   1.399       .  A
N148        O163   1.262       .  A
N148        O164   1.261       .  A
N150        O161   1.262       .  A
N150        O162   1.262       .  A
C152        C153   1.402       .  A
C152        N157   1.429       .  S
C153        C154   1.401       .  A
C153        H158   1.086       .  S
C154        C155   1.411       .  A
C155        C156   1.400       .  A
C155        N159   1.428       .  S
C156        H160   1.085       .  S
N157        O167   1.262   1_655  A
N157        O168   1.262       .  A
N159        O165   1.262       .  A
N159        O166   1.261       .  A
C169        C170   1.402       .  A
C169        C174   1.403       .  A
C169        H179   1.086       .  S
C170        C175   1.491       .  S
C170        C171   1.413       .  A
C171        C172   1.407       .  A
C171        N176   1.429       .  S
C172        C173   1.404       .  A
C172        H177   1.085       .  S
C173        C174   1.413       .  A
C174        N178   1.429       .  S
C175        C180   1.413       .  A
C175        C184   1.400       .  A
N176        O191   1.262       .  A
N176        O192   1.262       .  A
N178        O189   1.262       .  A
N178        O190   1.262       .  A
C180        C181   1.409       .  A
C180        N185   1.429   1_565  S
C181        C182   1.406       .  A
C181        H186   1.085   1_565  S
C182        C183   1.417       .  A
C183        C184   1.402       .  A
C183        N187   1.429       .  S
C184        H188   1.085       .  S
N185        O195   1.262       .  A
N185        O196   1.262   1_545  A
N187        O193   1.262       .  A
N187        O194   1.262       .  A
C197        C198   1.405       .  A
C197        C202   1.402       .  A
C197        H207   1.085       .  S
C198        C203   1.484   1_655  S
C198        C199   1.409       .  A
C199        C200   1.402       .  A
C199        N204   1.429   1_655  S
C200        C201   1.404       .  A
C200        H205   1.086       .  S
C201        C202   1.407       .  A
C202        N206   1.428       .  S
C203        C208   1.410   1_455  A
C203        C212   1.405       .  A
N204        O219   1.262       .  A
N204        O220   1.262       .  A
N206        O217   1.262       .  A
N206        O218   1.262       .  A
C208        C209   1.402   1_665  A
C208        N213   1.428       .  S
C209        C210   1.402       .  A
C209        H214   1.089       .  S
C210        C211   1.407       .  A
C211        C212   1.401   1_545  A
C211        N215   1.428       .  S
C212        H216   1.088       .  S
N213        O223   1.262       .  A
N213        O224   1.262       .  A
N215        O221   1.261       .  A
N215        O222   1.261       .  A
C225        C226   1.405       .  A
C225        C230   1.407       .  A
C225        H235   1.085       .  S
C226        C231   1.493   1_455  S
C226        C227   1.409   1_455  A
C227        C228   1.405       .  A
C227        N232   1.428       .  S
C228        C229   1.407   1_655  A
C228        H233   1.085       .  S
C229        C230   1.413       .  A
C230        N234   1.428       .  S
C231        C236   1.406   1_655  A
C231        C240   1.407       .  A
N232        O247   1.262       .  A
N232        O248   1.262       .  A
N234        O245   1.262       .  A
N234        O246   1.262       .  A
C236        C237   1.400       .  A
C236        N241   1.429       .  S
C237        C238   1.411   1_455  A
C237        H242   1.085       .  S
C238        C239   1.416       .  A
C239        C240   1.411       .  A
C239        N243   1.428       .  S
C240        H244   1.086       .  S
N241        O251   1.262       .  A
N241        O252   1.262       .  A
N243        O249   1.262       .  A
N243        O250   1.262       .  A
C253        C254   1.408       .  A
C253        C258   1.417       .  A
C253        H263   1.085       .  S
C254        C259   1.501       .  S
C254        C255   1.407       .  A
C255        C256   1.403       .  A
C255        N260   1.429       .  S
C256        C257   1.412       .  A
C256        H261   1.084       .  S
C257        C258   1.419       .  A
C258        N262   1.429   1_455  S
C259        C264   1.407       .  A
C259        C268   1.409       .  A
N260        O275   1.262       .  A
N260        O276   1.262       .  A
N262        O273   1.262       .  A
N262        O274   1.262       .  A
C264        C265   1.403       .  A
C264        N269   1.430       .  S
C265        C266   1.413       .  A
C265        H270   1.085       .  S
C266        C267   1.415       .  A
C267        C268   1.418       .  A
C267        N271   1.427   1_545  S
C268        H272   1.084       .  S
N269        O279   1.262       .  A
N269        O280   1.262       .  A
N271        O277   1.262       .  A
N271        O278   1.262       .  A
C281        C282   1.405   1_655  A
C281        C286   1.408       .  A
C281        H291   1.085       .  S
C282        C287   1.488   1_456  S
C282        C283   1.407       .  A
C283        C284   1.398       .  A
C283        N288   1.430   1_556  S
C284        C285   1.409       .  A
C284        H289   1.085       .  S
C285        C286   1.415   1_455  A
C286        N290   1.430       .  S
C287        C292   1.414   1_655  A
C287        C296   1.401       .  A
N288        O303   1.262       .  A
N288        O304   1.262       .  A
N290        O301   1.262       .  A
N290        O302   1.262       .  A
C292        C293   1.404       .  A
C292        N297   1.430       .  S
C293        C294   1.403   1_455  A
C293        H298   1.085       .  S
C294        C295   1.415       .  A
C295        C296   1.402       .  A
C295        N299   1.429       .  S
C296        H300   1.085       .  S
N297        O307   1.262       .  A
N297        O308   1.262       .  A
N299        O305   1.262       .  A
N299        O306   1.262       .  A
C309        C310   1.401       .  A
C309        C314   1.402       .  A
C309        H319   1.085       .  S
C310        C315   1.489       .  S
C310        C311   1.414       .  A
C311        C312   1.406       .  A
C311        N316   1.429   1_565  S
C312        C313   1.404       .  A
C312        H317   1.085   1_565  S
C313        C314   1.413       .  A
C314        N318   1.429       .  S
C315        C320   1.405   1_565  A
C315        C324   1.407       .  A
N316        O331   1.262       .  A
N316        O332   1.262       .  A
N318        O329   1.262       .  A
N318        O330   1.262       .  A
C320        C321   1.399       .  A
C320        N325   1.430       .  S
C321        C322   1.412   1_545  A
C321        H326   1.085       .  S
C322        C323   1.413       .  A
C323        C324   1.411       .  A
C323        N327   1.428       .  S
C324        H328   1.085       .  S
N325        O335   1.262       .  A
N325        O336   1.262       .  A
N327        O333   1.262       .  A
N327        O334   1.262       .  A
C337        C338   1.400       .  A
C337        C342   1.400       .  A
C337        H347   1.085       .  S
C338        C343   1.496       .  S
C338        C339   1.414       .  A
C339        C340   1.412       .  A
C339        N344   1.428       .  S
C340        C341   1.408       .  A
C340        H345   1.084       .  S
C341        C342   1.421       .  A
C342        N346   1.429       .  S
C343        C348   1.413       .  A
C343        C352   1.402       .  A
N344        O359   1.262       .  A
N344        O360   1.262       .  A
N346        O357   1.262       .  A
N346        O358   1.262       .  A
C348        C349   1.410       .  A
C348        N353   1.428       .  S
C349        C350   1.408       .  A
C349        H354   1.087       .  S
C350        C351   1.419       .  A
C351        C352   1.402       .  A
C351        N355   1.429       .  S
C352        H356   1.088       .  S
N353        O363   1.262       .  A
N353        O364   1.262       .  A
N355        O361   1.262       .  A
N355        O362   1.262       .  A
C365        C366   1.406   1_655  A
C365        C370   1.407       .  A
C365        H375   1.085       .  S
C366        C371   1.493   1_554  S
C366        C367   1.409       .  A
C367        C368   1.404       .  A
C367        N372   1.429       .  S
C368        C369   1.409       .  A
C368        H373   1.085       .  S
C369        C370   1.411   1_455  A
C370        N374   1.427       .  S
C371        C376   1.414       .  A
C371        C380   1.399   1_455  A
N372        O387   1.262       .  A
N372        O388   1.262       .  A
N374        O385   1.261       .  A
N374        O386   1.261       .  A
C376        C377   1.409       .  A
C376        N381   1.429       .  S
C377        C378   1.406   1_455  A
C377        H382   1.084       .  S
C378        C379   1.418       .  A
C379        C380   1.401       .  A
C379        N383   1.428       .  S
C380        H384   1.085       .  S
N381        O391   1.262       .  A
N381        O392   1.262       .  A
N383        O389   1.262       .  A
N383        O390   1.261       .  A
C393        C394   1.397   1_445  A
C393        C398   1.399   1_455  A
C393        H403   1.085       .  S
C394        C399   1.476   1_655  S
C394        C395   1.411       .  A
C395        C396   1.403   1_565  A
C395        N400   1.429       .  S
C396        C397   1.401       .  A
C396        H401   1.085       .  S
C397        C398   1.413       .  A
C398        N402   1.429   1_655  S
C399        C404   1.411       .  A
C399        C408   1.395   1_455  A
N400        O415   1.262       .  A
N400        O416   1.262       .  A
N402        O413   1.262       .  A
N402        O414   1.262   1_455  A
C404        C405   1.406       .  A
C404        N409   1.428       .  S
C405        C406   1.402       .  A
C405        H410   1.086       .  S
C406        C407   1.414       .  A
C407        C408   1.395   1_455  A
C407        N411   1.428   1_455  S
C408        H412   1.086       .  S
N409        O419   1.262       .  A
N409        O420   1.262       .  A
N411        O417   1.262       .  A
N411        O418   1.262       .  A
C421        C422   1.407       .  A
C421        C426   1.410       .  A
C421        H431   1.085       .  S
C422        C427   1.489   1_455  S
C422        C423   1.405   1_455  A
C423        C424   1.399   1_655  A
C423        N428   1.428       .  S
C424        C425   1.410       .  A
C424        H429   1.085   1_455  S
C425        C426   1.415       .  A
C426        N430   1.428       .  S
C427        C432   1.405   1_655  A
C427        C436   1.405       .  A
N428        O443   1.262       .  A
N428        O444   1.262       .  A
N430        O441   1.262       .  A
N430        O442   1.262       .  A
C432        C433   1.401       .  A
C432        N437   1.428       .  S
C433        C434   1.410   1_455  A
C433        H438   1.085       .  S
C434        C435   1.414       .  A
C435        C436   1.408       .  A
C435        N439   1.427       .  S
C436        H440   1.085       .  S
N437        O447   1.262       .  A
N437        O448   1.262       .  A
N439        O445   1.261       .  A
N439        O446   1.262       .  A
C449        C450   1.400       .  A
C449        C454   1.402       .  A
C449        H459   1.086       .  S
C450        C455   1.491       .  S
C450        C451   1.416       .  A
C451        C452   1.407       .  A
C451        N456   1.430   1_565  S
C452        C453   1.402       .  A
C452        H457   1.085       .  S
C453        C454   1.416       .  A
C454        N458   1.429       .  S
C455        C460   1.408       .  A
C455        C464   1.407       .  A
N456        O471   1.262       .  A
N456        O472   1.262       .  A
N458        O469   1.262       .  A
N458        O470   1.262       .  A
C460        C461   1.401       .  A
C460        N465   1.429   1_565  S
C461        C462   1.408       .  A
C461        H466   1.085   1_565  S
C462        C463   1.410       .  A
C463        C464   1.408       .  A
C463        N467   1.427       .  S
C464        H468   1.085       .  S
N465        O475   1.262       .  A
N465        O476   1.262       .  A
N467        O473   1.262       .  A
N467        O474   1.262       .  A
C477        C478   1.413       .  A
C477        C482   1.405       .  A
C477        H487   1.083       .  S
C478        C483   1.494   1_455  S
C478        C479   1.412       .  A
C479        C480   1.396       .  A
C479        N484   1.430   1_565  S
C480        C481   1.401       .  A
C480        H485   1.085       .  S
C481        C482   1.404       .  A
C482        N486   1.429       .  S
C483        C488   1.410       .  A
C483        C492   1.411       .  A
N484        O499   1.262       .  A
N484        O500   1.261       .  A
N486        O497   1.262       .  A
N486        O498   1.262       .  A
C488        C489   1.397       .  A
C488        N493   1.430       .  S
C489        C490   1.405       .  A
C489        H494   1.087       .  S
C490        C491   1.406   1_565  A
C491        C492   1.404   1_545  A
C491        N495   1.428       .  S
C492        H496   1.085   1_665  S
N493        O503   1.262       .  A
N493        O504   1.261       .  A
N495        O501   1.262       .  A
N495        O502   1.262       .  A
C505        C506   1.400       .  A
C505        C510   1.403       .  A
C505        H515   1.086   1_565  S
C506        C511   1.487       .  S
C506        C507   1.411       .  A
C507        C508   1.405       .  A
C507        N512   1.428       .  S
C508        C509   1.406       .  A
C508        H513   1.085       .  S
C509        C510   1.419       .  A
C510        N514   1.429       .  S
C511        C516   1.411       .  A
C511        C520   1.400       .  A
N512        O527   1.262       .  A
N512        O528   1.262       .  A
N514        O525   1.262       .  A
N514        O526   1.262   1_565  A
C516        C517   1.406   1_565  A
C516        N521   1.428   1_565  S
C517        C518   1.404   1_545  A
C517        H522   1.085       .  S
C518        C519   1.416       .  A
C519        C520   1.404       .  A
C519        N523   1.429       .  S
C520        H524   1.085       .  S
N521        O531   1.262       .  A
N521        O532   1.262   1_545  A
N523        O529   1.262       .  A
N523        O530   1.262       .  A
C533        C534   1.399       .  A
C533        C538   1.403       .  A
C533        H543   1.085       .  S
C534        C539   1.499       .  S
C534        C535   1.414       .  A
C535        C536   1.413       .  A
C535        N540   1.427       .  S
C536        C537   1.408       .  A
C536        H541   1.085   1_545  S
C537        C538   1.424       .  A
C538        N542   1.430       .  S
C539        C544   1.413       .  A
C539        C548   1.401       .  A
N540        O555   1.262       .  A
N540        O556   1.262   1_545  A
N542        O553   1.262       .  A
N542        O554   1.262       .  A
C544        C545   1.413       .  A
C544        N549   1.428       .  S
C545        C546   1.410       .  A
C545        H550   1.084       .  S
C546        C547   1.420       .  A
C547        C548   1.404       .  A
C547        N551   1.429       .  S
C548        H552   1.085       .  S
N549        O559   1.262       .  A
N549        O560   1.262       .  A
N551        O557   1.262       .  A
N551        O558   1.262       .  A
