geometry optimzed in LAMMPS
_audit_creation_date              2020-12-01 
_audit_creation_method            'lammps2cif' 
_symmetry_space_group_name_H-M    'P1' 
_symmetry_Int_Tables_number       1 
_symmetry_cell_setting            triclinic 
loop_ 
_symmetry_equiv_pos_as_xyz 
  x,y,z 
_cell_length_a                    55.00119952 
_cell_length_b                    55.01624368128941 
_cell_length_c                    55.024085598418445 
_cell_angle_alpha                 90.08161281502746 
_cell_angle_beta                  89.95336018453875 
_cell_angle_gamma                 90.03806488977048 
loop_ 
_atom_site_label 
_atom_site_type_symbol 
_atom_site_fract_x 
_atom_site_fract_y 
_atom_site_fract_z 
_atom_site_charge 
C1          C  0.06154753  0.71931357  0.95929057     0.81000
N2          N  0.04933661  0.70195037  0.97223982    -0.77300
C3          C  0.03389915  0.68617607  0.96047067     0.83400
N4          N  0.03033551  0.68840320  0.93597600    -0.77300
C5          C  0.04230240  0.70594334  0.92329362     0.83500
N6          N  0.05785108  0.72084219  0.93506914    -0.79000
C7          C  0.88782321  0.70140154  0.95514060     0.81000
N8          N  0.89986851  0.68471023  0.96889617    -0.77300
C9          C  0.92436123  0.68144849  0.96561695     0.83400
N10         N  0.93660281  0.69494814  0.94868657    -0.77300
C11         C  0.92421654  0.71109027  0.93469143     0.83500
N12         N  0.90016590  0.71398197  0.93814542    -0.79000
C13         C  0.91794828  0.70038160  0.11651404     0.81000
N14         N  0.89798337  0.71001376  0.10588089    -0.77300
C15         C  0.89276915  0.70577933  0.08225770     0.83400
N16         N  0.90777011  0.69127972  0.06883721    -0.77300
C17         C  0.92771321  0.68087150  0.07943019     0.83500
N18         N  0.93272186  0.68547692  0.10333197    -0.79000
C19         C  0.04621920  0.71506840  0.10004063     0.81000
N20         N  0.07011047  0.71798246  0.09513639    -0.77300
C21         C  0.08130391  0.70492800  0.07758264     0.83400
N22         N  0.06836398  0.68798153  0.06492872    -0.77300
C23         C  0.04420594  0.68460429  0.06987716     0.83500
N24         N  0.03310362  0.69843951  0.08724899    -0.79000
C25         C  0.92289677  0.49402712  0.11144473     0.81000
N26         N  0.90745696  0.48020525  0.09836256    -0.77300
C27         C  0.90413396  0.48355947  0.07433798     0.83400
N28         N  0.91681861  0.50143800  0.06280222    -0.77300
C29         C  0.93235046  0.51596334  0.07584009     0.83500
N30         N  0.93534684  0.51222004  0.10023300    -0.79000
C31         C  0.88928446  0.49708664  0.96004531     0.81000
N32         N  0.90202751  0.51382197  0.97300317    -0.77300
C33         C  0.92655230  0.51589759  0.96977396     0.83400
N34         N  0.93826474  0.50112302  0.95351468    -0.77300
C35         C  0.92529354  0.48459589  0.94038989     0.83500
N36         N  0.90101781  0.48291569  0.94382262    -0.79000
C37         C  0.06612799  0.48732685  0.95797986     0.81000
N38         N  0.05344649  0.50441145  0.97063656    -0.77300
C39         C  0.03761444  0.51943066  0.95875766     0.83400
N40         N  0.03398596  0.51671711  0.93429455    -0.77300
C41         C  0.04649493  0.49933452  0.92180318     0.83500
N42         N  0.06253308  0.48515824  0.93378791    -0.79000
C43         C  0.05267323  0.49567448  0.10558000     0.81000
N44         N  0.03852856  0.51001033  0.09126056    -0.77300
C45         C  0.04830041  0.52116810  0.07140566     0.83400
N46         N  0.07214150  0.51734272  0.06560306    -0.77300
C47         C  0.08609840  0.50252870  0.07968468     0.83500
N48         N  0.07629731  0.49219854  0.09975201    -0.79000
O49         O  0.02500597  0.64418740  0.96602317    -0.74600
O50         O  0.00851077  0.67182505  0.99243153    -0.53500
C51         C  0.02166068  0.66614999  0.97385481     0.79200
O52         O  0.93160856  0.55737620  0.97943800    -0.59200
O53         O  0.95903830  0.52987698  0.99417765    -0.52200
C54         C  0.93987610  0.53557282  0.98207845     0.71200
O55         O  0.93102427  0.64038119  0.97605926    -0.73700
O56         O  0.95492639  0.66967381  0.99340787    -0.54300
C57         C  0.93749459  0.66267513  0.97943489     0.77200
O58         O  0.02705431  0.56083487  0.96503926    -0.58900
O59         O  0.01238123  0.53201186  0.99115774    -0.52000
C60         C  0.02473717  0.53864954  0.97242880     0.73800
Zr61       Zr  0.01534313  0.60205946  0.97867374     2.54700
O62         O  0.00528748  0.60128286  0.93559579    -0.79400
O63         O  0.05909403  0.60440937  0.97218395    -0.92800
Zr64       Zr  0.94409898  0.59946794  0.98835920     2.64700
O65         O  0.93927734  0.59875740  0.94432597    -0.97800
O66         O  0.90025054  0.59880962  0.99462378    -0.79900
O67         O  0.97891995  0.62463254  0.98363019    -0.83200
O68         O  0.98056219  0.57697496  0.98324121    -2.17900
O69         O  0.04060209  0.56174005  0.06064832    -0.66600
O70         O  0.01536951  0.53232740  0.04565072    -0.51200
C71         C  0.03392747  0.53944998  0.05811281     0.72200
O72         O  0.93978594  0.64023853  0.07292966    -0.59500
O73         O  0.95561626  0.66958760  0.04813135    -0.51500
C74         C  0.94212524  0.66250687  0.06599185     0.74000
O75         O  0.94170366  0.55780585  0.07140361    -0.70900
O76         O  0.95976599  0.53024581  0.04604061    -0.49600
C77         C  0.94549903  0.53594478  0.06369208     0.75400
O78         O  0.03847833  0.64321398  0.06025504    -0.66200
O79         O  0.01112153  0.67090447  0.04578350    -0.53400
C80         C  0.03043781  0.66505506  0.05769187     0.73700
Zr81       Zr  0.02480607  0.60196587  0.05035874     2.77500
O82         O  0.02811320  0.60171232  0.09446572    -0.97000
O83         O  0.06856637  0.60284619  0.04373652    -0.77800
Zr84       Zr  0.95313946  0.59960653  0.05993579     2.70100
O85         O  0.96222544  0.60043684  0.10322926    -0.79100
O86         O  0.90932382  0.59698562  0.06627121    -0.98100
Zr87       Zr  0.98289264  0.64813660  0.02001510     2.21500
Zr88       Zr  0.98628286  0.55366910  0.01950829     2.11100
O89         O  0.98982286  0.57713983  0.05585145    -2.46800
O90         O  0.98830856  0.62453673  0.05594258    -0.78800
O91         O  0.02157078  0.57835645  0.01433690    -0.71000
O92         O  0.94733892  0.62325821  0.02425035    -2.32000
O93         O  0.01960973  0.62548839  0.01473498    -2.28200
O94         O  0.94931679  0.57595132  0.02406923    -0.72800
H95         H  0.97911160  0.56650983  0.96918824     0.79200
H96         H  0.93284275  0.63310523  0.02576963     0.80300
H97         H  0.99179619  0.56684253  0.06988301     0.82500
H98         H  0.03344340  0.63619616  0.01306875     0.80100
H99         H  0.89574954  0.61585320  0.99825152     0.43200
H100        H  0.90287891  0.61325094  0.06211955     0.42100
H101        H  0.95478501  0.58544298  0.10982172     0.41800
H102        H  0.04316832  0.61092721  0.09801112     0.39700
H103        H  0.07566930  0.59990862  0.05999887     0.42900
H104        H  0.06095837  0.60614464  0.95437082     0.37700
H105        H  0.98897326  0.60881393  0.93464104     0.43800
H106        H  0.94079081  0.58146838  0.93955920     0.40200
H107        H  0.01479854  0.61244028  0.10009126     0.45100
H108        H  0.06530957  0.58792483  0.97580334     0.43800
H109        H  0.92192503  0.60269132  0.94161466     0.44000
H110        H  0.90347732  0.58636402  0.05295473     0.44300
C111        C  0.60646617  0.04083412  0.09133881     0.81000
N112        N  0.60680827  0.01637542  0.08933835    -0.77300
C113        C  0.59186321  0.00426101  0.07418622     0.83400
N114        N  0.57555594  0.01695703  0.06064894    -0.77300
C115        C  0.57471846  0.04177420  0.06217345     0.83500
N116        N  0.59034475  0.05381125  0.07756721    -0.79000
C117        C  0.58873212  0.03612557  0.91227605     0.81000
N118        N  0.60070419  0.01778982  0.92332655    -0.77300
C119        C  0.59699341  0.01235907  0.94693613     0.83400
N120        N  0.58068226  0.02559883  0.96005164    -0.77300
C121        C  0.56796571  0.04395075  0.94913577     0.83500
N122        N  0.57198080  0.04917285  0.92512566    -0.79000
C123        C  0.58609364  0.19633809  0.94338939     0.81000
N124        N  0.57135906  0.18301089  0.95816522    -0.77300
C125        C  0.56694675  0.15911277  0.95302308     0.83400
N126        N  0.57746164  0.14861602  0.93310887    -0.77300
C127        C  0.59181039  0.16212430  0.91813731     0.83500
N128        N  0.59580232  0.18582342  0.92335245    -0.79000
C129        C  0.60687652  0.17783086  0.07042712     0.81000
N130        N  0.58987571  0.16558947  0.05726153    -0.77300
C131        C  0.57527606  0.14884799  0.06836792     0.83400
N132        N  0.57813268  0.14410052  0.09262661    -0.77300
C133        C  0.59543962  0.15622512  0.10557532     0.83500
N134        N  0.60929802  0.17307222  0.09434477    -0.79000
C135        C  0.36964232  0.17982425  0.95774618     0.81000
N136        N  0.38793607  0.16924322  0.97065466    -0.77300
C137        C  0.40183399  0.15157435  0.96002996     0.83400
N138        N  0.39665122  0.14386551  0.93706777    -0.77300
C139        C  0.37830470  0.15443198  0.92446299     0.83500
N140        N  0.36519051  0.17239366  0.93477279    -0.79000
C141        C  0.38166910  0.04637652  0.91517622     0.81000
N142        N  0.40047038  0.05608119  0.92822601    -0.77300
C143        C  0.40162827  0.05253117  0.95291318     0.83400
N144        N  0.38380019  0.03934030  0.96427685    -0.77300
C145        C  0.36528889  0.02940635  0.95109127     0.83500
N146        N  0.36461717  0.03306758  0.92683844    -0.79000
C147        C  0.38898584  0.03751960  0.10973998     0.81000
N148        N  0.38145777  0.01563990  0.10156503    -0.77300
C149        C  0.38852418  0.00682397  0.07977302     0.83400
N150        N  0.40364501  0.02027888  0.06561263    -0.77300
C151        C  0.41156621  0.04242952  0.07357747     0.83500
N152        N  0.40429421  0.05106231  0.09574775    -0.79000
C153        C  0.38976846  0.19680163  0.07452470     0.81000
N154        N  0.40547600  0.18250371  0.06163293    -0.77300
C155        C  0.41006468  0.15919815  0.06921528     0.83400
N156        N  0.39846100  0.15023270  0.08922710    -0.77300
C157        C  0.38314703  0.16474710  0.10210796     0.83500
N158        N  0.37922137  0.18777482  0.09475733    -0.79000
O159        O  0.53309959  0.04776862  0.05362694    -0.74600
O160        O  0.56063865  0.07261130  0.03486632    -0.53500
C161        C  0.55501592  0.05495640  0.04928134     0.79200
O162        O  0.44408587  0.05892712  0.95914900    -0.59200
O163        O  0.41734777  0.07391629  0.98722482    -0.52200
C164        C  0.42232627  0.06247486  0.96732687     0.71200
O165        O  0.52675907  0.05344117  0.95776207    -0.73700
O166        O  0.55672886  0.07175154  0.98010301    -0.54300
C167        C  0.54929531  0.05736786  0.96313595     0.77200
O168        O  0.45191561  0.05033730  0.06232541    -0.58900
O169        O  0.42158791  0.07174796  0.04371308    -0.52000
C170        C  0.42943983  0.05589766  0.05903287     0.73800
Zr171      Zr  0.49139638  0.06133670  0.04524908     2.54700
O172        O  0.48762238  0.01742990  0.04124063    -0.79400
O173        O  0.49851047  0.06031346  0.08893073    -0.92800
Zr174      Zr  0.48631135  0.06499403  0.97340574     2.64700
O175        O  0.48327127  0.02087292  0.97568702    -0.97800
O176        O  0.48496436  0.06552176  0.92919226    -0.79900
O177        O  0.51268807  0.06277045  0.00768994    -0.83200
O178        O  0.46504864  0.06244862  0.01101161    -2.17900
O179        O  0.45102519  0.14870220  0.06145523    -0.66600
O180        O  0.42097850  0.12735129  0.04217259    -0.51200
C181        C  0.42848456  0.14410932  0.05676690     0.72200
O182        O  0.52654012  0.15193443  0.96518502    -0.59500
O183        O  0.55646462  0.12745551  0.98048373    -0.51500
C184        C  0.54892858  0.14536151  0.96736769     0.74000
O185        O  0.44396994  0.14595456  0.96626478    -0.70900
O186        O  0.41690707  0.12538607  0.99022541    -0.49600
C187        C  0.42220045  0.14043261  0.97318877     0.75400
O188        O  0.53335233  0.14190004  0.06220648    -0.66200
O189        O  0.56050585  0.12459182  0.03585175    -0.53400
C190        C  0.55514331  0.13759442  0.05462594     0.73700
Zr191      Zr  0.49134157  0.13348078  0.04928549     2.77500
O192        O  0.49494596  0.17759703  0.05063917    -0.97000
O193        O  0.49100689  0.12991731  0.09339404    -0.77800
Zr194      Zr  0.48645958  0.13673034  0.97731913     2.70100
O195        O  0.48244771  0.18080116  0.97837710    -0.79100
O196        O  0.48707020  0.13503461  0.93310673    -0.98100
Zr197      Zr  0.53633746  0.09924185  0.00846412     2.21500
Zr198      Zr  0.44174319  0.09890116  0.01498995     2.11100
O199        O  0.46544276  0.13540156  0.01481021    -2.46800
O200        O  0.51274632  0.13569915  0.01174624    -0.78800
O201        O  0.46763947  0.09725432  0.04977509    -0.71000
O202        O  0.51029168  0.10096685  0.97359225    -2.32000
O203        O  0.51473255  0.09740467  0.04600919    -2.28200
O204        O  0.46275842  0.10083896  0.97709802    -0.72800
H205        H  0.45455230  0.04838553  0.01098921     0.79200
H206        H  0.51975456  0.10176736  0.95882767     0.80300
H207        H  0.45519307  0.14962790  0.01559305     0.82500
H208        H  0.52580729  0.09641090  0.05954267     0.80100
H209        H  0.48476775  0.04815631  0.92444279     0.43200
H210        H  0.47276198  0.12501562  0.92873072     0.42100
H211        H  0.47649812  0.18521174  0.96198440     0.41800
H212        H  0.51094448  0.18117932  0.04319758     0.39700
H213        H  0.50354353  0.11754233  0.09704706     0.42900
H214        H  0.49777505  0.04287294  0.09327820     0.37700
H215        H  0.48856806  0.01125915  0.05810774     0.43800
H216        H  0.46764780  0.01685773  0.96770836     0.40200
H217        H  0.48297976  0.18346579  0.03856606     0.45100
H218        H  0.48371108  0.06747818  0.09625961     0.43800
H219        H  0.49581978  0.01479752  0.96429415     0.44000
H220        H  0.48274093  0.15168477  0.92786780     0.44300
C221        C  0.08696794  0.02980724  0.60967641     0.81000
N222        N  0.07776875  0.00853289  0.61779529    -0.77300
C223        C  0.05468630  0.00169664  0.61263599     0.83400
N224        N  0.04036571  0.01654465  0.59894334    -0.77300
C225        C  0.04939038  0.03812342  0.59059062     0.83500
N226        N  0.07275352  0.04461002  0.59589257    -0.79000
C227        C  0.89127759  0.04013241  0.61783001     0.81000
N228        N  0.90499328  0.05025095  0.59972257    -0.77300
C229        C  0.92962188  0.04591851  0.59883009     0.83400
N230        N  0.94026897  0.03166569  0.61619173    -0.77300
C231        C  0.92637300  0.02132780  0.63386847     0.83500
N232        N  0.90224689  0.02569438  0.63430024    -0.79000
C233        C  0.93280885  0.17884917  0.63508543     0.81000
N234        N  0.91000580  0.17101764  0.63981897    -0.77300
C235        C  0.90027125  0.15219022  0.62754721     0.83400
N236        N  0.91315043  0.14125667  0.60962115    -0.77300
C237        C  0.93589315  0.14929080  0.60410587     0.83500
N238        N  0.94603869  0.16791571  0.61715342    -0.79000
C239        C  0.04436311  0.19658936  0.61975579     0.81000
N240        N  0.03203042  0.18269158  0.60335039    -0.77300
C241        C  0.03864829  0.15895608  0.59978787     0.83400
N242        N  0.05740684  0.14928176  0.61282604    -0.77300
C243        C  0.06988333  0.16345267  0.62880529     0.83500
N244        N  0.06329969  0.18685256  0.63190667    -0.79000
C245        C  0.91967902  0.18966614  0.41224470     0.81000
N246        N  0.93389481  0.17569417  0.42692176    -0.77300
C247        C  0.92410623  0.15619219  0.43879082     0.83400
N248        N  0.90023211  0.15022569  0.43505239    -0.77300
C249        C  0.88619361  0.16398011  0.41992843     0.83500
N250        N  0.89602824  0.18375448  0.40908850    -0.79000
C251        C  0.90665529  0.04078240  0.40033849     0.81000
N252        N  0.91936248  0.05391345  0.41703983    -0.77300
C253        C  0.93471855  0.04233333  0.43272921     0.83400
N254        N  0.93766277  0.01769291  0.43122849    -0.77300
C255        C  0.92510331  0.00475781  0.41426353     0.83500
N256        N  0.90965095  0.01645697  0.39927658    -0.79000
C257        C  0.08318227  0.04504049  0.40826181     0.81000
N258        N  0.07153388  0.02801207  0.39492413    -0.77300
C259        C  0.04757384  0.02354690  0.39775143     0.83400
N260        N  0.03470838  0.03642391  0.41450620    -0.77300
C261        C  0.04611002  0.05348683  0.42849639     0.83500
N262        N  0.07050627  0.05770076  0.42546062    -0.79000
C263        C  0.05100661  0.19633181  0.41368366     0.81000
N264        N  0.07034839  0.18490092  0.40377900    -0.77300
C265        C  0.07535079  0.16142905  0.40867405     0.83400
N266        N  0.06073685  0.14887584  0.42415653    -0.77300
C267        C  0.04143646  0.16026684  0.43491776     0.83500
N268        N  0.03653942  0.18407930  0.42964843    -0.79000
O269        O  0.93898568  0.05171016  0.55689129    -0.74600
O270        O  0.96286198  0.07011670  0.58553538    -0.53500
C271        C  0.94483065  0.05650428  0.57916529     0.79200
O272        O  0.04036670  0.06050092  0.47032437    -0.59200
O273        O  0.01366808  0.07787466  0.44372674    -0.52200
C274        C  0.03262965  0.06499431  0.44871627     0.71200
O275        O  0.04003283  0.05029002  0.55093249    -0.73700
O276        O  0.01903409  0.06797192  0.58213405    -0.54300
C277        C  0.03509240  0.05309523  0.57359441     0.77200
O278        O  0.94411152  0.04844537  0.47414669    -0.58900
O279        O  0.95943299  0.07502708  0.44606172    -0.52000
C280        C  0.94694056  0.05616823  0.45217684     0.73800
Zr281      Zr  0.95428987  0.06157172  0.51567059     2.54700
O282        O  0.95749451  0.01749663  0.51800297    -0.79400
O283        O  0.91017027  0.06044509  0.51217851    -0.92800
Zr284      Zr  0.02660267  0.06684806  0.51217861     2.64700
O285        O  0.02998535  0.02307533  0.50609516    -0.97800
O286        O  0.07063661  0.07156538  0.51286036    -0.79900
O287        O  0.99171688  0.06174474  0.53745592    -0.83200
O288        O  0.98942179  0.06495034  0.49042391    -2.17900
O289        O  0.93331113  0.14519888  0.47937002    -0.66600
O290        O  0.95679251  0.12958886  0.44878969    -0.51200
C291        C  0.93894431  0.14261184  0.45672391     0.72200
O292        O  0.02946540  0.15256705  0.55842792    -0.59500
O293        O  0.01635109  0.12458820  0.58618904    -0.51500
C294        C  0.02724307  0.14447573  0.58030717     0.74000
O295        O  0.03195285  0.15311256  0.47600692    -0.70900
O296        O  0.01257754  0.13057326  0.44689317    -0.49600
C297        C  0.02746019  0.14734485  0.45374522     0.75400
O298        O  0.94086976  0.14333791  0.56199788    -0.66200
O299        O  0.96586799  0.12309263  0.58836263    -0.53400
C300        C  0.94867418  0.13813667  0.58351219     0.73700
Zr301      Zr  0.94978988  0.13337681  0.51926327     2.77500
O302        O  0.94847933  0.17758633  0.52011134    -0.97000
O303        O  0.90588575  0.12966915  0.52358479    -0.77800
Zr304      Zr  0.02135821  0.13858237  0.51677292     2.70100
O305        O  0.01875571  0.18275193  0.51792385    -0.79100
O306        O  0.06565293  0.13908024  0.51665567    -0.98100
Zr307      Zr  0.99062632  0.09675963  0.56311434     2.21500
Zr308      Zr  0.98599423  0.10244419  0.46865665     2.11100
O309        O  0.98457564  0.13772993  0.49413571    -2.46800
O310        O  0.98659655  0.13431141  0.54165241    -0.78800
O311        O  0.95059873  0.09857985  0.49365124    -0.71000
O312        O  0.02600518  0.10132993  0.53829453    -2.32000
O313        O  0.95312776  0.09644966  0.54099498    -2.28200
O314        O  0.02318755  0.10408054  0.49086032    -0.72800
H315        H  0.99019021  0.05138225  0.47931277     0.79200
H316        H  0.04048979  0.10181901  0.54822826     0.80300
H317        H  0.98317102  0.15233553  0.48450203     0.82500
H318        H  0.93932092  0.09588741  0.55182335     0.80100
H319        H  0.07370529  0.08577381  0.52347586     0.43200
H320        H  0.07002658  0.15486108  0.50920023     0.42100
H321        H  0.00547631  0.18686490  0.50651531     0.41800
H322        H  0.93175602  0.18148800  0.52552751     0.39700
H323        H  0.90087121  0.11893797  0.51002360     0.42900
H324        H  0.90426217  0.07146028  0.52514419     0.37700
H325        H  0.97010215  0.01452608  0.53048073     0.43800
H326        H  0.01929477  0.01588803  0.51866217     0.40200
H327        H  0.95893507  0.18221716  0.53401112     0.45100
H328        H  0.90555703  0.04397130  0.51775733     0.43800
H329        H  0.02151429  0.01975081  0.49057407     0.44000
H330        H  0.07035347  0.14083145  0.53393163     0.44300
C331        C  0.98452518  0.35923222  0.29136489     0.04200
S332        S  0.95710268  0.34292661  0.29897513    -0.09800
C333        C  0.97313798  0.32220535  0.31833592    -0.00900
C334        C  0.99649908  0.32723572  0.32384988    -0.00900
S335        S  0.01213107  0.34968210  0.30609642    -0.09800
C336        C  0.99563551  0.40913595  0.24199281    -0.00900
C337        C  0.97195389  0.41321248  0.24676808    -0.00900
S338        S  0.95647753  0.39241926  0.26650798    -0.09800
C339        C  0.98438412  0.37779497  0.27527727     0.04200
S340        S  0.01201866  0.38894569  0.26161323    -0.09800
C341        C  0.25187413  0.10362474  0.29436293     0.04200
S342        S  0.22986779  0.12763889  0.29796465    -0.09800
C343        C  0.21262259  0.11088040  0.32001491    -0.00900
C344        C  0.22188393  0.08989907  0.32863495    -0.00900
S345        S  0.24909422  0.07808445  0.31478336    -0.09800
C346        C  0.30214679  0.09356345  0.24435542    -0.00900
C347        C  0.29273157  0.11496594  0.23698135    -0.00900
S348        S  0.27137084  0.13016150  0.25637536    -0.09800
C349        C  0.26912057  0.10455339  0.27669610     0.04200
S350        S  0.29029791  0.08001021  0.27165419    -0.09800
C351        C  0.23553373  0.36820857  0.02190990     0.04200
S352        S  0.23948812  0.39559857  0.03947715    -0.09800
C353        C  0.21019141  0.40740465  0.03090225    -0.00900
C354        C  0.19551048  0.39350873  0.01696367    -0.00900
S355        S  0.20724986  0.36524444  0.00562198    -0.09800
C356        C  0.27618561  0.31012554  0.01272679    -0.00900
C357        C  0.29105900  0.32296756  0.02742635    -0.00900
S358        S  0.28091789  0.35237837  0.03775201    -0.09800
C359        C  0.25273953  0.35052059  0.02096519     0.04200
S360        S  0.24828446  0.32364829  0.00278258    -0.09800
C361        C  0.72036424  0.10684693  0.26464486     0.04200
S362        S  0.69303735  0.12474580  0.26616834    -0.09800
C363        C  0.68330126  0.11537995  0.23640553    -0.00900
C364        C  0.69773513  0.10061791  0.22310656    -0.00900
S365        S  0.72490384  0.08926650  0.23719873    -0.09800
C366        C  0.77569317  0.09978839  0.30931163    -0.00900
C367        C  0.76183077  0.11482916  0.32291283    -0.00900
S368        S  0.73304330  0.12440427  0.31051717    -0.09800
C369        C  0.73685631  0.10669773  0.28302656     0.04200
S370        S  0.76407672  0.08880568  0.28089514    -0.09800
C371        C  0.97837328  0.84762283  0.28889549     0.04200
S372        S  0.99977613  0.87240549  0.28839339    -0.09800
C373        C  0.98678323  0.88640276  0.31485774    -0.00900
C374        C  0.96889342  0.87448856  0.32673740    -0.00900
S375        S  0.95763013  0.84654181  0.31419200    -0.09800
C376        C  0.96860055  0.79287334  0.24389557    -0.00900
C377        C  0.98576751  0.80549732  0.23169797    -0.00900
S378        S  0.99800593  0.83250331  0.24529324    -0.09800
C379        C  0.97787911  0.83067490  0.27102181     0.04200
S380        S  0.95699309  0.80541124  0.27171392    -0.09800
C381        C  0.25024543  0.10002171  0.73052313     0.04200
S382        S  0.22612733  0.12211998  0.73226435    -0.09800
C383        C  0.20795367  0.10665297  0.71013594    -0.00900
C384        C  0.21757255  0.08722131  0.69856510    -0.00900
S385        S  0.24660986  0.07594658  0.70859019    -0.09800
C386        C  0.30673483  0.09103831  0.77342398    -0.00900
C387        C  0.29657381  0.11124106  0.78283234    -0.00900
S388        S  0.27242504  0.12595802  0.76700003    -0.09800
C389        C  0.26971546  0.10139226  0.74557995     0.04200
S390        S  0.29354091  0.07872324  0.74606701    -0.09800
C391        C  0.99164654  0.37276270  0.76547888     0.04200
S392        S  0.97184591  0.37259161  0.79157178    -0.09800
C393        C  0.98549847  0.39937477  0.80431005    -0.00900
C394        C  0.00261828  0.41111373  0.79121733    -0.00900
S395        S  0.01260102  0.39787001  0.76307022    -0.09800
C396        C  0.99871106  0.32664008  0.71124731    -0.00900
C397        C  0.98259141  0.31448726  0.72512389    -0.00900
S398        S  0.97072790  0.32910403  0.75175799    -0.09800
C399        C  0.99090878  0.35476994  0.74861439     0.04200
S400        S  0.01022861  0.35518750  0.72211661    -0.09800
C401        C  0.24261954  0.86516856  0.02396385     0.04200
S402        S  0.23930307  0.89239889  0.00588132    -0.09800
C403        C  0.26862881  0.90430676  0.01463509    -0.00900
C404        C  0.28280743  0.89028792  0.02899218    -0.00900
S405        S  0.27059833  0.86236069  0.04070601    -0.09800
C406        C  0.20031643  0.80792371  0.03432583    -0.00900
C407        C  0.18571336  0.82109170  0.01966055    -0.00900
S408        S  0.19707667  0.84966150  0.00821849    -0.09800
C409        C  0.22517921  0.84759053  0.02502333     0.04200
S410        S  0.22903118  0.82067856  0.04338636    -0.09800
C411        C  0.72070214  0.34771561  0.99766715     0.04200
S412        S  0.72485030  0.32028338  0.01496485    -0.09800
C413        C  0.69578901  0.30843335  0.00626794    -0.00900
C414        C  0.68156865  0.32176475  0.99139920    -0.00900
S415        S  0.69325352  0.34998836  0.97994326    -0.09800
C416        C  0.76067153  0.40671767  0.99333548    -0.00900
C417        C  0.77507043  0.39294929  0.00756911    -0.00900
S418        S  0.76471734  0.36328216  0.01608466    -0.09800
C419        C  0.73733850  0.36586601  0.99830839     0.04200
S420        S  0.73294104  0.39385082  0.98193199    -0.09800
C421        C  0.99119796  0.83484807  0.76893443     0.04200
S422        S  0.01258347  0.81007171  0.76754797    -0.09800
C423        C  0.00025360  0.79600608  0.79423685    -0.00900
C424        C  0.98226271  0.80747449  0.80630603    -0.00900
S425        S  0.96958853  0.83455045  0.79352300    -0.09800
C426        C  0.98351526  0.89298848  0.72853697    -0.00900
C427        C  0.00032428  0.88093068  0.71535722    -0.00900
S428        S  0.01205972  0.85284108  0.72696704    -0.09800
C429        C  0.99134423  0.85295763  0.75232517     0.04200
S430        S  0.97081714  0.87835112  0.75468272    -0.09800
C431        C  0.69570718  0.09417513  0.73800033     0.04200
S432        S  0.69206453  0.11917843  0.75899679    -0.09800
C433        C  0.67086194  0.10283625  0.77759961    -0.00900
C434        C  0.66275863  0.08108984  0.76963957    -0.00900
S435        S  0.67606071  0.06831912  0.74255235    -0.09800
C436        C  0.74441436  0.08351480  0.68622896    -0.00900
C437        C  0.75193263  0.10484391  0.69569794    -0.00900
S438        S  0.73313281  0.12027094  0.71734585    -0.09800
C439        C  0.71283838  0.09476850  0.72018701     0.04200
S440        S  0.71720875  0.07013113  0.69876127    -0.09800
C441        C  0.69849778  0.83194382  0.01576675     0.04200
S442        S  0.68297601  0.83974402  0.04357647    -0.09800
C443        C  0.66694925  0.86448596  0.02958360    -0.00900
C444        C  0.67302154  0.87072114  0.00666628    -0.00900
S445        S  0.69059583  0.84937720  0.98918955    -0.09800
C446        C  0.74855165  0.78296641  0.00146254    -0.00900
C447        C  0.75209267  0.78598427  0.02551541    -0.00900
S448        S  0.72972006  0.80283488  0.04236159    -0.09800
C449        C  0.71573765  0.81433242  0.01501645     0.04200
S450        S  0.72651041  0.80191397  0.98662016    -0.09800
C451        C  0.03374828  0.28785345  0.35943505     0.21100
C452        C  0.05153580  0.26994934  0.36250241    -0.38800
C453        C  0.04753062  0.25358163  0.38159144     0.20100
C454        C  0.02726211  0.25463186  0.39649142     0.22700
C455        C  0.01001044  0.27330067  0.39414641    -0.39300
C456        C  0.01420993  0.28994723  0.37519616     0.21500
N457        N  0.03105811  0.30258476  0.34011262    -0.32600
C458        C  0.00954199  0.31402044  0.34347639    -0.10100
C459        C  0.99913663  0.30744834  0.36575590    -0.28900
N460        N  0.02602024  0.23480906  0.41091114    -0.45500
C461        C  0.04575469  0.22120877  0.40504395    -0.04800
C462        C  0.05967539  0.23261578  0.38715478    -0.22200
H463        H  0.06643559  0.26775676  0.34982356     0.19600
H464        H  0.99363801  0.27382140  0.40506584     0.18400
H465        H  0.98140101  0.31252803  0.37260394     0.14700
H466        H  0.07568685  0.22559850  0.37809526     0.14600
H467        H  0.04206066  0.30318744  0.32464165     0.32700
H468        H  0.01214199  0.23033561  0.42307968     0.35500
C469        C  0.15397987  0.12025776  0.34658250     0.21100
C470        C  0.13183266  0.11268680  0.35704557    -0.38800
C471        C  0.12108184  0.12912015  0.37343905     0.20100
C472        C  0.13153518  0.15146534  0.37841883     0.22700
C473        C  0.15370949  0.15884267  0.36824499    -0.39300
C474        C  0.16455306  0.14237555  0.35219514     0.21500
N475        N  0.16878817  0.10725168  0.33215589    -0.32600
C476        C  0.18925187  0.12084860  0.32928143    -0.10100
C477        C  0.18696715  0.14319095  0.34095081    -0.28900
N478        N  0.11699518  0.16476513  0.39267430    -0.45500
C479        C  0.09708802  0.15096822  0.39711132    -0.04800
C480        C  0.09906585  0.12828466  0.38578801    -0.22200
H481        H  0.12379662  0.09517712  0.35300022     0.19600
H482        H  0.16192205  0.17620572  0.37254353     0.18400
H483        H  0.20075945  0.15708837  0.34293484     0.14700
H484        H  0.08552068  0.11402018  0.38508727     0.14600
H485        H  0.16585441  0.08948842  0.32612454     0.32700
H486        H  0.11998046  0.18268531  0.39824523     0.35500
C487        C  0.14340366  0.04450850  0.38373750     0.21100
C488        C  0.16088828  0.03742723  0.36654530    -0.38800
C489        C  0.18101226  0.05282656  0.36409367     0.20100
C490        C  0.18376309  0.07344898  0.37827325     0.22700
C491        C  0.16660350  0.08006517  0.39618505    -0.39300
C492        C  0.14602832  0.06496629  0.39812177     0.21500
N493        N  0.12132284  0.03472364  0.38671711    -0.32600
C494        C  0.10931373  0.04899358  0.40288311    -0.10100
C495        C  0.12425714  0.06807988  0.41067296    -0.28900
N496        N  0.20146791  0.08761382  0.36915403    -0.45500
C497        C  0.20942572  0.07645065  0.34856266    -0.04800
C498        C  0.19769160  0.05423096  0.34532723    -0.22200
H499        H  0.15787124  0.02227205  0.35434429     0.19600
H500        H  0.16794643  0.09704053  0.40606271     0.18400
H501        H  0.11934604  0.08304397  0.42247846     0.14700
H502        H  0.19837356  0.04275436  0.32934660     0.14600
H503        H  0.11442299  0.01974392  0.37727502     0.32700
H504        H  0.20574575  0.10520711  0.37490697     0.35500
C505        C  0.03526589  0.97181510  0.36054378     0.21100
C506        C  0.04129185  0.95100841  0.34705831    -0.38800
C507        C  0.02162629  0.93784451  0.33768230     0.20100
C508        C  0.99782173  0.94522892  0.34101661     0.22700
C509        C  0.99177564  0.96615422  0.35445021    -0.39300
C510        C  0.01146538  0.97902393  0.36437293     0.21500
N511        N  0.05069310  0.98686747  0.37185787    -0.32600
C512        C  0.03678822  0.00373617  0.38327831    -0.10100
C513        C  0.01210400  0.99941403  0.37917100    -0.28900
N514        N  0.98243162  0.92881025  0.33159197    -0.45500
C515        C  0.99645552  0.91031523  0.32311552    -0.04800
C516        C  0.02106406  0.91564957  0.32597756    -0.22200
H517        H  0.05991267  0.94508243  0.34472733     0.19600
H518        H  0.97310354  0.97144531  0.35773186     0.18400
H519        H  0.99680223  0.00975750  0.38596632     0.14700
H520        H  0.03638018  0.90406021  0.32170909     0.14600
H521        H  0.06964519  0.98556064  0.37199217     0.32700
H522        H  0.96349292  0.92971922  0.33203853     0.35500
C523        C  0.83379093  0.09030356  0.33687315     0.21100
C524        C  0.85351699  0.09653932  0.35193174    -0.38800
C525        C  0.86591152  0.07693188  0.36255309     0.20100
C526        C  0.85940311  0.05308596  0.35783899     0.22700
C527        C  0.83999024  0.04687127  0.34259106    -0.39300
C528        C  0.82729034  0.06638541  0.33251273     0.21500
N529        N  0.81732073  0.10544348  0.32718034    -0.32600
C530        C  0.79981639  0.09100002  0.31742148    -0.10100
C531        C  0.80576975  0.06654912  0.31976387    -0.28900
N532        N  0.87330644  0.03774702  0.37050163    -0.45500
C533        C  0.88876343  0.05168987  0.38370140    -0.04800
C534        C  0.88472213  0.07637530  0.37931153    -0.22200
H535        H  0.85800794  0.11524338  0.35610507     0.19600
H536        H  0.83447313  0.02819430  0.33972477     0.18400
H537        H  0.79469001  0.05102522  0.31488998     0.14700
H538        H  0.89400965  0.09172315  0.38741303     0.14600
H539        H  0.81720290  0.12436764  0.32860929     0.32700
H540        H  0.87201981  0.01879568  0.37044001     0.35500
C541        C  0.92365468  0.94395332  0.39223584     0.21100
C542        C  0.91603111  0.92626159  0.37552175    -0.38800
C543        C  0.93305718  0.90819078  0.36993225     0.20100
C544        C  0.95580970  0.90754790  0.38072393     0.22700
C545        C  0.96286753  0.92448478  0.39856224    -0.39300
C546        C  0.94604476  0.94299276  0.40365507     0.21500
N547        N  0.91289677  0.96538436  0.39638100    -0.32600
C548        C  0.92848811  0.97846078  0.41030898    -0.10100
C549        C  0.94925131  0.96492164  0.41568872    -0.28900
N550        N  0.97068507  0.89271511  0.36825259    -0.45500
C551        C  0.95756593  0.88443830  0.34906891    -0.04800
C552        C  0.93374557  0.89292907  0.35002261    -0.22200
H553        H  0.89924723  0.92812915  0.36542798     0.19600
H554        H  0.98120844  0.92498351  0.40565955     0.18400
H555        H  0.96557676  0.97125388  0.42466232     0.14700
H556        H  0.92017323  0.89148084  0.33585543     0.14600
H557        H  0.89667632  0.97143746  0.38858768     0.32700
H558        H  0.98937713  0.89069865  0.37094110     0.35500
C559        C  0.92902910  0.24472663  0.37919781     0.21100
C560        C  0.92272851  0.26761038  0.36971972    -0.38800
C561        C  0.93863590  0.27714267  0.35218093     0.20100
C562        C  0.95899052  0.26453413  0.34446114     0.22700
C563        C  0.96538026  0.24175244  0.35405245    -0.39300
C564        C  0.94978550  0.23248422  0.37197508     0.21500
N565        N  0.91639004  0.23137815  0.39526315    -0.32600
C566        C  0.92929541  0.21063347  0.39860764    -0.10100
C567        C  0.95046487  0.21076915  0.38462035    -0.28900
N568        N  0.97226941  0.27820285  0.32927924    -0.45500
C569        C  0.96091322  0.30008299  0.32798975    -0.04800
C570        C  0.93940806  0.29988976  0.34145617    -0.22200
H571        H  0.90683685  0.27744934  0.37587619     0.19600
H572        H  0.98169669  0.23227547  0.34845753     0.18400
H573        H  0.96367192  0.19631252  0.38275314     0.14700
H574        H  0.92742904  0.31508629  0.34499019     0.14600
H575        H  0.89961023  0.23579286  0.40300233     0.32700
H576        H  0.98915064  0.27359367  0.32187850     0.35500
C577        C  0.82653105  0.15958188  0.39433611     0.21100
C578        C  0.80789497  0.16701958  0.37855524    -0.38800
C579        C  0.79194594  0.14874836  0.37060316     0.20100
C580        C  0.79411625  0.12491326  0.37834331     0.22700
C581        C  0.81208289  0.11772712  0.39513483    -0.39300
C582        C  0.82845631  0.13592814  0.40258911     0.21500
N583        N  0.84614744  0.17257136  0.40084377    -0.32600
C584        C  0.86094988  0.15724375  0.41325049    -0.10100
C585        C  0.85036639  0.13419148  0.41500663    -0.28900
N586        N  0.78069571  0.11012718  0.36418343    -0.45500
C587        C  0.77056604  0.12444106  0.34678319    -0.04800
C588        C  0.77640207  0.14878243  0.35083919    -0.22200
H589        H  0.80742843  0.18517042  0.37100180     0.19600
H590        H  0.81479230  0.09883816  0.39989040     0.18400
H591        H  0.85855591  0.11788897  0.42232433     0.14700
H592        H  0.77307070  0.16382469  0.33863641     0.14600
H593        H  0.84988853  0.19050445  0.39584526     0.32700
H594        H  0.78084730  0.09114260  0.36456301     0.35500
C595        C  0.00804034  0.29100173  0.65799716     0.21100
C596        C  0.00030284  0.27298735  0.64145011    -0.38800
C597        C  0.01782222  0.25550827  0.63498448     0.20100
C598        C  0.04127019  0.25651412  0.64401801     0.22700
C599        C  0.04922416  0.27497315  0.65966138    -0.39300
C600        C  0.03169582  0.29202066  0.66652991     0.21500
N601        N  0.99377428  0.30595887  0.67103540    -0.32600
C602        C  0.00829350  0.31591489  0.68839266    -0.10100
C603        C  0.03222849  0.30829095  0.68560341    -0.28900
N604        N  0.05353343  0.23634526  0.63828120    -0.45500
C605        C  0.03801170  0.22200150  0.62560891    -0.04800
C606        C  0.01548000  0.23345051  0.62283389    -0.22200
H607        H  0.98146115  0.27125845  0.63604387     0.19600
H608        H  0.06714043  0.27467273  0.66778715     0.18400
H609        H  0.04708567  0.31122851  0.69815956     0.14700
H610        H  0.99910422  0.22583476  0.61501672     0.14600
H611        H  0.97485644  0.30718462  0.66993355     0.32700
H612        H  0.07113496  0.23201609  0.64394566     0.35500
C613        C  0.15677550  0.14051083  0.68908937     0.21100
C614        C  0.14559784  0.16023873  0.67753328    -0.38800
C615        C  0.12396144  0.15491066  0.66515656     0.20100
C616        C  0.11415309  0.13173954  0.66421900     0.22700
C617        C  0.12481600  0.11222215  0.67663770    -0.39300
C618        C  0.14634673  0.11759627  0.68926037     0.21500
N619        N  0.17931650  0.13988729  0.69851760    -0.32600
C620        C  0.18338829  0.11634845  0.70442975    -0.10100
C621        C  0.16271255  0.10219143  0.70009336    -0.28900
N622        N  0.09399028  0.13132243  0.65032866    -0.45500
C623        C  0.09081392  0.15453540  0.64279577    -0.04800
C624        C  0.10913745  0.16969550  0.65165793    -0.22200
H625        H  0.15375346  0.17814817  0.67716813     0.19600
H626        H  0.11749844  0.09397704  0.67567248     0.18400
H627        H  0.16092475  0.08270337  0.70200530     0.14700
H628        H  0.11122744  0.18903557  0.64868423     0.14600
H629        H  0.19185556  0.15414941  0.69898637     0.32700
H630        H  0.08281489  0.11639417  0.64671389     0.35500
C631        C  0.96298170  0.22234629  0.67312366     0.21100
C632        C  0.98145234  0.23267761  0.68750897    -0.38800
C633        C  0.97493093  0.25375770  0.70057099     0.20100
C634        C  0.95189161  0.26382999  0.69918714     0.22700
C635        C  0.93339992  0.25320440  0.68536371    -0.39300
C636        C  0.93985868  0.23223722  0.67249065     0.21500
N637        N  0.96425944  0.20240791  0.65879977    -0.32600
C638        C  0.94161013  0.19970941  0.64936279    -0.10100
C639        C  0.92607264  0.21796271  0.65749648    -0.28900
N640        N  0.95116804  0.28568354  0.71009360    -0.45500
C641        C  0.97395971  0.28984814  0.71828168    -0.04800
C642        C  0.98912920  0.26998733  0.71337782    -0.22200
H643        H  0.99973626  0.22541738  0.68780990     0.19600
H644        H  0.91549338  0.26122791  0.68395383     0.18400
H645        H  0.90696146  0.22015691  0.65334689     0.14700
H646        H  0.00857541  0.26893699  0.71617247     0.14600
H647        H  0.97922144  0.19099409  0.65627610     0.32700
H648        H  0.93666708  0.29793618  0.71001848     0.35500
C649        C  0.81332222  0.11472778  0.67810288     0.21100
C650        C  0.83664186  0.10700451  0.67133508    -0.38800
C651        C  0.84948916  0.12288034  0.65619435     0.20100
C652        C  0.84010971  0.14512371  0.64910272     0.22700
C653        C  0.81674304  0.15280872  0.65582239    -0.39300
C654        C  0.80360683  0.13661015  0.67040576     0.21500
N655        N  0.79669084  0.10181841  0.69027058    -0.32600
C656        C  0.77596848  0.11511808  0.68954491    -0.10100
C657        C  0.77967703  0.13725972  0.67789365    -0.28900
N658        N  0.85670236  0.15776690  0.63651547    -0.45500
C659        C  0.87655681  0.14329807  0.63527759    -0.04800
C660        C  0.87274353  0.12125799  0.64705772    -0.22200
H661        H  0.84396682  0.08962939  0.67692128     0.19600
H662        H  0.80924186  0.16997409  0.64985751     0.18400
H663        H  0.76616668  0.15084187  0.67347997     0.14700
H664        H  0.88584310  0.10692841  0.65020318     0.14600
H665        H  0.79885067  0.08425180  0.69709594     0.32700
H666        H  0.85503910  0.17554171  0.63007256     0.35500
C667        C  0.95918261  0.98337972  0.67574598     0.21100
C668        C  0.97905506  0.97337049  0.68832878    -0.38800
C669        C  0.97378290  0.95309299  0.70305735     0.20100
C670        C  0.95058946  0.94341726  0.70485428     0.22700
C671        C  0.93069300  0.95398728  0.69314275    -0.39300
C672        C  0.93592711  0.97418641  0.67861709     0.21500
N673        N  0.95935088  0.00153632  0.65920271    -0.32600
C674        C  0.93589816  0.00384597  0.65184638    -0.10100
C675        C  0.92092454  0.98718233  0.66369323    -0.28900
N676        N  0.95092219  0.92180641  0.71620065    -0.45500
C677        C  0.97451910  0.91742530  0.72146684    -0.04800
C678        C  0.98920159  0.93702676  0.71447465    -0.22200
H679        H  0.99743313  0.97993867  0.68575879     0.19600
H680        H  0.91265688  0.94615167  0.69405427     0.18400
H681        H  0.90159287  0.98446059  0.66116034     0.14700
H682        H  0.00884508  0.93799896  0.71503745     0.14600
H683        H  0.97435019  0.01156626  0.65327654     0.32700
H684        H  0.93631965  0.90984022  0.71831482     0.35500
C685        C  0.82949674  0.03978775  0.63861593     0.21100
C686        C  0.81108232  0.03293419  0.65493049    -0.38800
C687        C  0.79037317  0.04773126  0.65542252     0.20100
C688        C  0.78812104  0.06783538  0.64053041     0.22700
C689        C  0.80635262  0.07427922  0.62353345    -0.39300
C690        C  0.82735870  0.05954397  0.62328590     0.21500
N691        N  0.85187202  0.03031311  0.63728152    -0.32600
C692        C  0.86464641  0.04393602  0.62113798    -0.10100
C693        C  0.84980921  0.06237957  0.61170035    -0.28900
N694        N  0.76914916  0.08153077  0.64781175    -0.45500
C695        C  0.75959559  0.07041375  0.66777931    -0.04800
C696        C  0.77195185  0.04882724  0.67254614    -0.22200
H697        H  0.81358992  0.01825230  0.66776033     0.19600
H698        H  0.80517413  0.09073305  0.61284466     0.18400
H699        H  0.85514836  0.07684336  0.59950141     0.14700
H700        H  0.77016865  0.03758293  0.68857386     0.14600
H701        H  0.85840489  0.01591130  0.64776890     0.32700
H702        H  0.76466988  0.09875821  0.64123975     0.35500
C703        C  0.17904999  0.07155498  0.64862703     0.21100
C704        C  0.16120868  0.07710517  0.63121052    -0.38800
C705        C  0.14427123  0.05865220  0.62631165     0.20100
C706        C  0.14537951  0.03622946  0.63760998     0.22700
C707        C  0.16371083  0.03038121  0.65439960    -0.39300
C708        C  0.18036002  0.04900005  0.65967785     0.21500
N709        N  0.19417897  0.08732421  0.65953878    -0.32600
C710        C  0.20472209  0.07499891  0.67812471    -0.10100
C711        C  0.19712699  0.05081208  0.67831445    -0.28900
N712        N  0.12567317  0.02288996  0.63212450    -0.45500
C713        C  0.11171180  0.03692337  0.61740956    -0.04800
C714        C  0.12287498  0.05929912  0.61312565    -0.22200
H715        H  0.15940150  0.09514521  0.62360132     0.19600
H716        H  0.16381497  0.01327778  0.66409939     0.18400
H717        H  0.20096928  0.03732145  0.69207769     0.14700
H718        H  0.11557212  0.07454776  0.60310793     0.14600
H719        H  0.19553100  0.10592419  0.65596985     0.32700
H720        H  0.12143516  0.00569456  0.63897061     0.35500
C721        C  0.04652323  0.94623652  0.64515168     0.21100
C722        C  0.05339593  0.92835627  0.66187638    -0.38800
C723        C  0.03482679  0.91297644  0.66987685     0.20100
C724        C  0.01119447  0.91501083  0.66147108     0.22700
C725        C  0.00440774  0.93261384  0.64418612    -0.39300
C726        C  0.02300434  0.94839243  0.63652387     0.21500
N727        N  0.06043148  0.96441047  0.63696195    -0.32600
C728        C  0.04587175  0.97861085  0.62310641    -0.10100
C729        C  0.02227062  0.96914374  0.62221864    -0.28900
N730        N  0.99621978  0.90120073  0.67492011    -0.45500
C731        C  0.01030017  0.89109149  0.69249341    -0.04800
C732        C  0.03460967  0.89731042  0.68939286    -0.22200
H733        H  0.07152630  0.92766617  0.66948315     0.19600
H734        H  0.98568856  0.93508974  0.63865939     0.18400
H735        H  0.00654702  0.97695418  0.61336941     0.14700
H736        H  0.04944864  0.89370194  0.70178000     0.14600
H737        H  0.07867178  0.96741761  0.64133260     0.32700
H738        H  0.97726429  0.90075961  0.67379268     0.35500
C739        C  0.34359228  0.13732588  0.14543976     0.21100
C740        C  0.32595368  0.12105979  0.15411122    -0.38800
C741        C  0.31518883  0.12724428  0.17644522     0.20100
C742        C  0.32183975  0.14779233  0.18941580     0.22700
C743        C  0.33885750  0.16445777  0.18035079    -0.39300
C744        C  0.34941124  0.15839301  0.15794501     0.21500
N745        N  0.35626731  0.13582502  0.12453083    -0.32600
C746        C  0.36988264  0.15633895  0.12365266    -0.10100
C747        C  0.36613847  0.17076872  0.14416016    -0.28900
N748        N  0.31237643  0.14729729  0.21196706    -0.45500
C749        C  0.29986712  0.12614413  0.21347005    -0.04800
C750        C  0.30031933  0.11370649  0.19128684    -0.22200
H751        H  0.32154006  0.10439311  0.14460790     0.19600
H752        H  0.34422162  0.18048371  0.19044793     0.18400
H753        H  0.37391674  0.18845217  0.14795111     0.14700
H754        H  0.29348831  0.09560821  0.18766180     0.14600
H755        H  0.35481636  0.12239182  0.11117453     0.32700
H756        H  0.31613541  0.15938899  0.22612892     0.35500
C757        C  0.36209981  0.25529213  0.06948490     0.21100
C758        C  0.34609735  0.27354434  0.07735862    -0.38800
C759        C  0.33770505  0.28951731  0.05944325     0.20100
C760        C  0.34503541  0.28763245  0.03545460     0.22700
C761        C  0.36167912  0.26967606  0.02767229    -0.39300
C762        C  0.36977992  0.25333850  0.04562755     0.21500
N763        N  0.36973105  0.23623286  0.08250371    -0.32600
C764        C  0.38225424  0.22158458  0.06708368    -0.10100
C765        C  0.38296341  0.23179298  0.04379147    -0.28900
N766        N  0.33117042  0.30196729  0.02130402    -0.45500
C767        C  0.31447807  0.31250194  0.03625536    -0.04800
C768        C  0.31852509  0.30572152  0.06030002    -0.22200
H769        H  0.33911690  0.27400941  0.09575398     0.19600
H770        H  0.36624097  0.26726502  0.00868251     0.18400
H771        H  0.39026392  0.22365779  0.02742373     0.14700
H772        H  0.30681387  0.30930979  0.07570800     0.14600
H773        H  0.36542068  0.23274519  0.10066752     0.32700
H774        H  0.33139822  0.30250855  0.00232966     0.35500
C775        C  0.35735301  0.04515350  0.16592293     0.21100
C776        C  0.33973361  0.03926381  0.18340690    -0.38800
C777        C  0.33628504  0.05641859  0.20190056     0.20100
C778        C  0.34975474  0.07764094  0.20305562     0.22700
C779        C  0.36765619  0.08340305  0.18565041    -0.39300
C780        C  0.37077662  0.06640120  0.16682655     0.21500
N781        N  0.36269631  0.03249604  0.14584877    -0.32600
C782        C  0.37950760  0.04567096  0.13351200    -0.10100
C783        C  0.38509980  0.06707996  0.14603928    -0.28900
N784        N  0.34088789  0.09234990  0.22041742    -0.45500
C785        C  0.32114475  0.08083017  0.22983854    -0.04800
C786        C  0.31812344  0.05802357  0.21920021    -0.22200
H787        H  0.32859175  0.02310205  0.18193766     0.19600
H788        H  0.37733131  0.10053953  0.18592688     0.18400
H789        H  0.39743256  0.08136741  0.14047857     0.14700
H790        H  0.30301034  0.04566104  0.22167354     0.14600
H791        H  0.35486596  0.01599428  0.14060443     0.32700
H792        H  0.34659608  0.11009154  0.22407411     0.35500
C793        C  0.36588673  0.95297351  0.05073896     0.21100
C794        C  0.35823017  0.93812528  0.03136874    -0.38800
C795        C  0.34090391  0.92018360  0.03723423     0.20100
C796        C  0.33208055  0.91726943  0.06066643     0.22700
C797        C  0.34075737  0.93111646  0.08013728    -0.39300
C798        C  0.35766225  0.94914736  0.07420644     0.21500
N799        N  0.37912390  0.97362390  0.04949471    -0.32600
C800        C  0.37898224  0.98289317  0.07237219    -0.10100
C801        C  0.36602883  0.96794622  0.08818217    -0.28900
N802        N  0.31182273  0.90364013  0.06075073    -0.45500
C803        C  0.30725320  0.89820764  0.03722803    -0.04800
C804        C  0.32564237  0.90722500  0.02210041    -0.22200
H805        H  0.36344507  0.94184767  0.01276874     0.19600
H806        H  0.33295000  0.92974698  0.09815238     0.18400
H807        H  0.36180875  0.97131139  0.10711511     0.14700
H808        H  0.32555907  0.90766222  0.00243335     0.14600
H809        H  0.38659132  0.98152780  0.03393441     0.32700
H810        H  0.30026677  0.90068569  0.07553549     0.35500
C811        C  0.35510555  0.07523017  0.81385818     0.21100
C812        C  0.37274772  0.08160419  0.83145230    -0.38800
C813        C  0.37446010  0.06613182  0.85181203     0.20100
C814        C  0.35991444  0.04573759  0.85392625     0.22700
C815        C  0.34297497  0.03897706  0.83607295    -0.39300
C816        C  0.34093505  0.05457537  0.81608830     0.21500
N817        N  0.34650656  0.08935114  0.79582607    -0.32600
C818        C  0.32636288  0.07798040  0.78695192    -0.10100
C819        C  0.32279322  0.05586205  0.79873808    -0.28900
N820        N  0.36223610  0.03581606  0.87601140    -0.45500
C821        C  0.37817281  0.04984178  0.88859596    -0.04800
C822        C  0.38658307  0.06890468  0.87392470    -0.22200
H823        H  0.38272348  0.09854017  0.83047724     0.19600
H824        H  0.33069130  0.02381803  0.83866164     0.18400
H825        H  0.30699500  0.04420145  0.79737954     0.14700
H826        H  0.39812583  0.08389585  0.87934643     0.14600
H827        H  0.35241737  0.10689578  0.79163605     0.32700
H828        H  0.35230422  0.02103955  0.88263136     0.35500
C829        C  0.29106351  0.95579077  0.98117724     0.21100
C830        C  0.29970819  0.96766968  0.96030096    -0.38800
C831        C  0.31668952  0.98637308  0.96428948     0.20100
C832        C  0.32470001  0.99275566  0.98726684     0.22700
C833        C  0.31519103  0.98161394  0.00822526    -0.39300
C834        C  0.29794048  0.96307168  0.00425197     0.21500
N835        N  0.27802616  0.93502187  0.98208355    -0.32600
C836        C  0.27666078  0.92885257  0.00590543    -0.10100
C837        C  0.28792580  0.94664067  0.02030078    -0.28900
N838        N  0.34289929  0.00923868  0.98592045    -0.45500
C839        C  0.34632352  0.01348147  0.96185755    -0.04800
C840        C  0.33007483  0.99972335  0.94793299    -0.22200
H841        H  0.29475273  0.96178917  0.94218749     0.19600
H842        H  0.32178578  0.98602887  0.02622980     0.18400
H843        H  0.29071402  0.94620353  0.03975398     0.14700
H844        H  0.32899024  0.99875401  0.92830857     0.14600
H845        H  0.27207537  0.92469744  0.96729306     0.32700
H846        H  0.35268069  0.01669962  0.00038576     0.35500
C847        C  0.32745026  0.22787597  0.96773417     0.21100
C848        C  0.31207626  0.24691400  0.96074053    -0.38800
C849        C  0.29972477  0.25864433  0.97961928     0.20100
C850        C  0.30203854  0.25147338  0.00361193     0.22700
C851        C  0.31711296  0.23202673  0.01057030    -0.39300
C852        C  0.33014708  0.22078945  0.99169676     0.21500
N853        N  0.34159896  0.21449773  0.95315880    -0.32600
C854        C  0.35373164  0.19885550  0.96777272    -0.10100
C855        C  0.34727641  0.20231561  0.99209369    -0.28900
N856        N  0.29118996  0.26759762  0.01837749    -0.45500
C857        C  0.28280736  0.28559623  0.00374790    -0.04800
C858        C  0.28703438  0.28023227  0.97939031    -0.22200
H859        H  0.31081601  0.25295603  0.94207044     0.19600
H860        H  0.31970648  0.22708794  0.02942685     0.18400
H861        H  0.35367398  0.19229887  0.00774574     0.14700
H862        H  0.28405775  0.29202115  0.96394578     0.14600
H863        H  0.34281942  0.21584594  0.93425624     0.32700
H864        H  0.29155709  0.26750281  0.03735129     0.35500
C865        C  0.34573701  0.12729999  0.87638933     0.21100
C866        C  0.32732471  0.11268652  0.86655820    -0.38800
C867        C  0.31888060  0.11964414  0.84359442     0.20100
C868        C  0.32842540  0.13932077  0.83112219     0.22700
C869        C  0.34677270  0.15397179  0.84099342    -0.39300
C870        C  0.35497860  0.14723018  0.86411144     0.21500
N871        N  0.35512743  0.12594042  0.89884460    -0.32600
C872        C  0.37019894  0.14528978  0.90093935    -0.10100
C873        C  0.37072441  0.15891113  0.87963578    -0.28900
N874        N  0.31949071  0.14032782  0.80845868    -0.45500
C875        C  0.30443415  0.12099085  0.80646700    -0.04800
C876        C  0.30298846  0.10807044  0.82821085    -0.22200
H877        H  0.32010705  0.09706051  0.87608308     0.19600
H878        H  0.35419548  0.16941314  0.83133230     0.18400
H879        H  0.37964972  0.17620537  0.87672849     0.14700
H880        H  0.29385582  0.09091490  0.83130811     0.14600
H881        H  0.35011164  0.11378562  0.91253494     0.32700
H882        H  0.32491165  0.15209927  0.79459313     0.35500
C883        C  0.67214227  0.25924868  0.04122146     0.21100
C884        C  0.66194537  0.24869556  0.06201678    -0.38800
C885        C  0.64729505  0.22824424  0.05795074     0.20100
C886        C  0.64284199  0.21900528  0.03496001     0.22700
C887        C  0.65357739  0.22921425  0.01417595    -0.39300
C888        C  0.66855830  0.24952996  0.01826580     0.21500
N889        N  0.68409469  0.28052813  0.03992769    -0.32600
C890        C  0.68799990  0.28452325  0.01597388    -0.10100
C891        C  0.67935873  0.26513375  0.00196517    -0.28900
N892        N  0.62737582  0.19999950  0.03604285    -0.45500
C893        C  0.62231867  0.19704959  0.05998000    -0.04800
C894        C  0.63441472  0.21432205  0.07410240    -0.22200
H895        H  0.66446673  0.25638273  0.07996138     0.19600
H896        H  0.64987799  0.22239642  0.99608950     0.18400
H897        H  0.67876899  0.26391953  0.98234405     0.14700
H898        H  0.63374410  0.21647469  0.09365572     0.14600
H899        H  0.68776332  0.29244336  0.05426424     0.32700
H900        H  0.62093832  0.18957130  0.02153130     0.35500
C901        C  0.60776413  0.13411644  0.16549767     0.21100
C902        C  0.61274851  0.11636308  0.18312338    -0.38800
C903        C  0.62833898  0.12356303  0.20207718     0.20100
C904        C  0.63813433  0.14676905  0.20336431     0.22700
C905        C  0.63194850  0.16486495  0.18664276    -0.39300
C906        C  0.61670962  0.15755536  0.16761576     0.21500
N907        N  0.59734439  0.13071903  0.14353503    -0.32600
C908        C  0.59996866  0.15216232  0.13167644    -0.10100
C909        C  0.61165917  0.16928728  0.14627956    -0.28900
N910        N  0.65720461  0.14735985  0.21860147    -0.45500
C911        C  0.65990848  0.12434151  0.22672647    -0.04800
C912        C  0.64159007  0.10922908  0.21769781    -0.22200
H913        H  0.60722305  0.09761989  0.18077023     0.19600
H914        H  0.64069042  0.18250386  0.18675399     0.18400
H915        H  0.61765274  0.18730530  0.14110648     0.14700
H916        H  0.64086985  0.08960596  0.21893867     0.14600
H917        H  0.59054756  0.11444602  0.13647315     0.32700
H918        H  0.66945799  0.16170972  0.22083890     0.35500
C919        C  0.60315449  0.25368323  0.96934878     0.21100
C920        C  0.60912887  0.26987937  0.98822263    -0.38800
C921        C  0.62557252  0.28854143  0.98215849     0.20100
C922        C  0.63520969  0.29085040  0.95899109     0.22700
C923        C  0.62820132  0.27552414  0.93989780    -0.39300
C924        C  0.61209166  0.25678361  0.94603442     0.21500
N925        N  0.59133328  0.23226804  0.97127293    -0.32600
C926        C  0.59303808  0.22167114  0.94904585    -0.10100
C927        C  0.60557542  0.23661176  0.93284400    -0.28900
N928        N  0.65462893  0.30567945  0.95908198    -0.45500
C929        C  0.65782094  0.31253428  0.98247403    -0.04800
C930        C  0.63935703  0.30310375  0.99724822    -0.22200
H931        H  0.60342883  0.26670270  0.00678405     0.19600
H932        H  0.63672887  0.27646788  0.92218492     0.18400
H933        H  0.61096708  0.23236494  0.91439209     0.14700
H934        H  0.63862808  0.30352872  0.01690618     0.14600
H935        H  0.58398407  0.22468595  0.98704816     0.32700
H936        H  0.66668756  0.30854926  0.94468776     0.35500
C937        C  0.62470284  0.12964306  0.87219767     0.21100
C938        C  0.63971171  0.11144383  0.86232256    -0.38800
C939        C  0.64851934  0.11583675  0.83870338     0.20100
C940        C  0.64238496  0.13644933  0.82568593     0.22700
C941        C  0.62770066  0.15474884  0.83567031    -0.39300
C942        C  0.61929750  0.15059651  0.85939187     0.21500
N943        N  0.61453231  0.13028045  0.89451754    -0.32600
C944        C  0.60298721  0.15202409  0.89595505    -0.10100
C945        C  0.60554477  0.16510249  0.87440870    -0.28900
N946        N  0.65098250  0.13519788  0.80279860    -0.45500
C947        C  0.66259295  0.11356158  0.80109717    -0.04800
C948        C  0.66208692  0.10134326  0.82341039    -0.22200
H949        H  0.64402594  0.09498693  0.87217526     0.19600
H950        H  0.62292608  0.17094027  0.82560077     0.18400
H951        H  0.59875974  0.18314851  0.87052485     0.14700
H952        H  0.66909973  0.08340874  0.82734719     0.14600
H953        H  0.61616771  0.11725510  0.90821116     0.32700
H954        H  0.64793076  0.14762963  0.78880239     0.35500
C955        C  0.63076324  0.96682239  0.97912492     0.21100
C956        C  0.64438890  0.95628764  0.99797054    -0.38800
C957        C  0.65319583  0.93268208  0.99344416     0.20100
C958        C  0.64853261  0.92033398  0.97201205     0.22700
C959        C  0.63559752  0.93113617  0.95293888    -0.39300
C960        C  0.62699638  0.95474668  0.95735298     0.21500
N961        N  0.61988614  0.98883363  0.97890390    -0.32600
C962        C  0.60945308  0.99072653  0.95664863    -0.10100
C963        C  0.61361105  0.96989551  0.94278610    -0.28900
N964        N  0.65627310  0.89713586  0.97333843    -0.45500
C965        C  0.66575063  0.89455356  0.99589953    -0.04800
C966        C  0.66499256  0.91667977  0.00855229    -0.22200
H967        H  0.64730260  0.96545305  0.01514658     0.19600
H968        H  0.63180785  0.92157236  0.93616020     0.18400
H969        H  0.60761067  0.96636250  0.92438302     0.14700
H970        H  0.67070597  0.92013906  0.02704561     0.14600
H971        H  0.62000892  0.00187964  0.99271329     0.32700
H972        H  0.65396595  0.88355870  0.96025481     0.35500
C973        C  0.61587942  0.06400161  0.81066087     0.21100
C974        C  0.59831335  0.07036352  0.82823628    -0.38800
C975        C  0.59810223  0.05614540  0.84945441     0.20100
C976        C  0.61381598  0.03676279  0.85236176     0.22700
C977        C  0.63069503  0.02989355  0.83453571    -0.39300
C978        C  0.63132349  0.04436555  0.81367085     0.21500
N979        N  0.62342315  0.07779459  0.79199087    -0.32600
C980        C  0.64419486  0.06734561  0.78360959    -0.10100
C981        C  0.64918838  0.04594554  0.79610665    -0.28900
N982        N  0.61177953  0.02740036  0.87467989    -0.45500
C983        C  0.59474838  0.04078801  0.88647811    -0.04800
C984        C  0.58564344  0.05900318  0.87127735    -0.22200
H985        H  0.58722185  0.08650844  0.82648720     0.19600
H986        H  0.64380388  0.01555913  0.83762006     0.18400
H987        H  0.66573663  0.03534377  0.79517717     0.14700
H988        H  0.57252063  0.07293658  0.87582388     0.14600
H989        H  0.61656665  0.09483612  0.78721681     0.32700
H990        H  0.62201159  0.01303387  0.88168497     0.35500
C991        C  0.64568309  0.07572802  0.13119448     0.21100
C992        C  0.65736737  0.09599892  0.14180189    -0.38800
C993        C  0.67192348  0.09113429  0.16244232     0.20100
C994        C  0.67455734  0.06790977  0.17172915     0.22700
C995        C  0.66360252  0.04773586  0.16073399    -0.39300
C996        C  0.64913499  0.05259327  0.14035984     0.21500
N997        N  0.62975032  0.07526498  0.11235632    -0.32600
C998        C  0.62327803  0.05152592  0.10967646    -0.10100
C999        C  0.63512295  0.03709820  0.12685191    -0.28900
N1000       N  0.68606769  0.06830286  0.19331279    -0.45500
C1001       C  0.69065569  0.09196607  0.19826953    -0.04800
C1002       C  0.68280959  0.10670878  0.17897347    -0.22200
H1003       H  0.65438186  0.11430669  0.13528186     0.19600
H1004       H  0.66516056  0.02964460  0.16828283     0.18400
H1005       H  0.63338597  0.01766418  0.12942267     0.14700
H1006       H  0.68275050  0.12636220  0.17835582     0.14600
H1007       H  0.62370439  0.09003148  0.10210379     0.32700
H1008       H  0.68882124  0.05354369  0.20490885     0.35500
C1009       C  0.61833745  0.90332969  0.04766952     0.21100
C1010       C  0.60002295  0.92020469  0.04188931    -0.38800
C1011       C  0.59841756  0.94057288  0.05719191     0.20100
C1012       C  0.61344805  0.94328286  0.07716802     0.22700
C1013       C  0.63088762  0.92584450  0.08364451    -0.39300
C1014       C  0.63308102  0.90595014  0.06789796     0.21500
N1015       N  0.62715848  0.88599424  0.03294442    -0.32600
C1016       C  0.64809644  0.87810687  0.04335472    -0.10100
C1017       C  0.65193012  0.88948312  0.06565794    -0.28900
N1018       N  0.61138283  0.96569399  0.08643292    -0.45500
C1019       C  0.59527486  0.97770515  0.07215979    -0.04800
C1020       C  0.58636068  0.96246234  0.05390978    -0.22200
H1021       H  0.58972672  0.91896652  0.02517695     0.19600
H1022       H  0.64364129  0.92892665  0.09830612     0.18400
H1023       H  0.66811128  0.88850703  0.07679325     0.14700
H1024       H  0.57466253  0.96741655  0.03891086     0.14600
H1025       H  0.62075195  0.88169878  0.01558942     0.32700
H1026       H  0.62174261  0.97290908  0.10062979     0.35500
C1027       C  0.01006226  0.43432153  0.18383898     0.21100
C1028       C  0.00446810  0.44252002  0.16036002    -0.38800
C1029       C  0.02108394  0.45888519  0.15014364     0.20100
C1030       C  0.04202742  0.46595126  0.16217617     0.22700
C1031       C  0.04755908  0.45782712  0.18575449    -0.39300
C1032       C  0.03063403  0.44184537  0.19621155     0.21500
N1033       N  0.99618600  0.42025761  0.19804628    -0.32600
C1034       C  0.00747274  0.41937516  0.21996348    -0.10100
C1035       C  0.02938451  0.43214376  0.21938369    -0.28900
N1036       N  0.05549809  0.48056847  0.14801458    -0.45500
C1037       C  0.04287859  0.48310743  0.12699937    -0.04800
C1038       C  0.02116486  0.47007829  0.12770370    -0.22200
H1039       H  0.98807931  0.43698396  0.15097455     0.19600
H1040       H  0.06367185  0.46377510  0.19535403     0.18400
H1041       H  0.04172114  0.43540146  0.23434720     0.14700
H1042       H  0.00792350  0.46804829  0.11330236     0.14600
H1043       H  0.97930737  0.41283516  0.19347783     0.32700
H1044       H  0.07246512  0.48802742  0.15218472     0.35500
C1045       C  0.17885501  0.46292089  0.04101260     0.21100
C1046       C  0.16084533  0.47965260  0.03392168    -0.38800
C1047       C  0.14418734  0.48648087  0.05206664     0.20100
C1048       C  0.14587298  0.47767992  0.07554783     0.22700
C1049       C  0.16463180  0.46214379  0.08295277    -0.39300
C1050       C  0.18092917  0.45489862  0.06478823     0.21500
N1051       N  0.19212281  0.44877799  0.02611748    -0.32600
C1052       C  0.20206403  0.43129052  0.04040220    -0.10100
C1053       C  0.19635997  0.43516120  0.06472672    -0.28900
N1054       N  0.12598606  0.48348211  0.08838013    -0.45500
C1055       C  0.11130502  0.49603334  0.07311630    -0.04800
C1056       C  0.12215808  0.49857110  0.05028809    -0.22200
H1057       H  0.15822379  0.48465146  0.01508443     0.19600
H1058       H  0.16489770  0.45412785  0.10090721     0.18400
H1059       H  0.19941329  0.42267896  0.07960074     0.14700
H1060       H  0.11412925  0.50625184  0.03407547     0.14600
H1061       H  0.19184292  0.44911481  0.00713348     0.32700
H1062       H  0.12207053  0.47802317  0.10613894     0.35500
C1063       C  0.11208709  0.44351183  0.97122365     0.21100
C1064       C  0.13052199  0.42705704  0.96513409    -0.38800
C1065       C  0.14308529  0.41682180  0.98464645     0.20100
C1066       C  0.13737633  0.42214147  0.00855214     0.22700
C1067       C  0.11833003  0.43822529  0.01472353    -0.39300
C1068       C  0.10611087  0.44906924  0.99501704     0.21500
N1069       N  0.09866728  0.45648510  0.95569907    -0.32600
C1070       C  0.08389555  0.47070784  0.96936225    -0.10100
C1071       C  0.08801711  0.46671110  0.99416198    -0.28900
N1072       N  0.15408954  0.41241855  0.02351891    -0.45500
C1073       C  0.17095306  0.40167218  0.00889843    -0.04800
C1074       C  0.16418305  0.40335898  0.98461704    -0.22200
H1075       H  0.13558525  0.42349049  0.94645371     0.19600
H1076       H  0.11433319  0.44303700  0.03338417     0.18400
H1077       H  0.07911998  0.47548009  0.00937660     0.14700
H1078       H  0.17467528  0.39779988  0.96892111     0.14600
H1079       H  0.09969310  0.45578250  0.93674727     0.32700
H1080       H  0.15484501  0.41453327  0.04235476     0.35500
C1081       C  0.01590918  0.46506577  0.82393495     0.21100
C1082       C  0.00862963  0.48264440  0.84111332    -0.38800
C1083       C  0.02503189  0.48712436  0.86018900     0.20100
C1084       C  0.04715717  0.47527114  0.86154078     0.22700
C1085       C  0.05494189  0.45868958  0.84379509    -0.39300
C1086       C  0.03844894  0.45386789  0.82502933     0.21500
N1087       N  0.00124416  0.45298418  0.80855213    -0.32600
C1088       C  0.01425776  0.43363525  0.80041373    -0.10100
C1089       C  0.03786809  0.43418158  0.80946941    -0.28900
N1090       N  0.05781055  0.47949137  0.88301310    -0.45500
C1091       C  0.04251054  0.49406425  0.89574152    -0.04800
C1092       C  0.02188205  0.49953426  0.88196638    -0.22200
H1093       H  0.99043646  0.49013089  0.84118954     0.19600
H1094       H  0.07151659  0.44830437  0.84591201     0.18400
H1095       H  0.05113211  0.41968595  0.80845066     0.14700
H1096       H  0.00585189  0.50929066  0.88788304     0.14600
H1097       H  0.98259435  0.45581585  0.80633592     0.32700
H1098       H  0.07398543  0.47169484  0.88917912     0.35500
C1099       C  0.82786903  0.47737187  0.95627165     0.11800
C1100       C  0.80954980  0.46248975  0.94670930    -0.38800
C1101       C  0.79148899  0.45524080  0.96307954     0.20100
C1102       C  0.79142846  0.46283554  0.98711997     0.22700
C1103       C  0.80890442  0.47915299  0.99622978    -0.39300
C1104       C  0.82739439  0.48585674  0.97996477     0.21500
N1105       N  0.84943258  0.48196746  0.94595644    -0.32600
C1106       C  0.86298214  0.49335188  0.96309244    -0.10100
C1107       C  0.84973018  0.49657983  0.98447959    -0.28900
N1108       N  0.77704030  0.44834202  0.00050143    -0.45500
C1109       C  0.76858675  0.43103860  0.98505207    -0.04800
C1110       C  0.77630164  0.43539856  0.96140325    -0.22200
H1111       H  0.81102960  0.45453472  0.92875977     0.19600
H1112       H  0.80993822  0.48357269  0.01537858     0.18400
H1113       H  0.85645911  0.50316562  0.00175624     0.14700
H1114       H  0.77488070  0.42302515  0.94615482     0.14600
H1115       H  0.85518644  0.47610449  0.92881860     0.32700
H1116       H  0.77583957  0.44821099  0.01945376     0.35500
C1117       C  0.96062671  0.45079457  0.89684083     0.21100
C1118       C  0.98113661  0.44098218  0.88504852    -0.38800
C1119       C  0.97628423  0.42704699  0.86405371     0.20100
C1120       C  0.95297141  0.42373621  0.85518082     0.22700
C1121       C  0.93260824  0.43299757  0.86720597    -0.39300
C1122       C  0.93737240  0.44638474  0.88829843     0.21500
N1123       N  0.95993067  0.46527228  0.91673259    -0.32600
C1124       C  0.93593773  0.46963455  0.92077617    -0.10100
C1125       C  0.92153788  0.45804379  0.90345865    -0.28900
N1126       N  0.95327381  0.41228828  0.83358895    -0.45500
C1127       C  0.97697560  0.40823955  0.82845271    -0.04800
C1128       C  0.99179835  0.41633629  0.84754480    -0.22200
H1129       H  0.99946919  0.44439905  0.89134113     0.19600
H1130       H  0.91435507  0.43051495  0.86029071     0.18400
H1131       H  0.90192239  0.45847240  0.90188597     0.14700
H1132       H  0.01140980  0.41577888  0.84857203     0.14600
H1133       H  0.97468515  0.47167845  0.92682882     0.32700
H1134       H  0.93835350  0.40861055  0.82243606     0.35500
C1135       C  0.94067134  0.48329868  0.17320649     0.21100
C1136       C  0.95625214  0.48303883  0.19342940    -0.38800
C1137       C  0.95213764  0.46426977  0.21031591     0.20100
C1138       C  0.93379185  0.44723357  0.20732430     0.22700
C1139       C  0.91732284  0.44850260  0.18806310    -0.39300
C1140       C  0.92167334  0.46690674  0.17110551     0.21500
N1141       N  0.94320040  0.49633754  0.15256905    -0.32600
C1142       C  0.92571199  0.48787661  0.13736674    -0.10100
C1143       C  0.91184320  0.46983042  0.14851418    -0.28900
N1144       N  0.93714378  0.42803823  0.22200287    -0.45500
C1145       C  0.95803535  0.43254081  0.23410708    -0.04800
C1146       C  0.96725033  0.45552285  0.22818453    -0.22200
H1147       H  0.97192727  0.49488646  0.19463069     0.19600
H1148       H  0.90379035  0.43453190  0.18500824     0.18400
H1149       H  0.89763753  0.45885540  0.14041776     0.14700
H1150       H  0.98460636  0.46310539  0.23353961     0.14600
H1151       H  0.95672820  0.50906852  0.14861867     0.32700
H1152       H  0.92735157  0.41176297  0.22177601     0.35500
C1153       C  0.82334948  0.41874178  0.04243415     0.21100
C1154       C  0.83348494  0.42910155  0.06329206    -0.38800
C1155       C  0.85403868  0.44360954  0.05957060     0.20100
C1156       C  0.86396209  0.44784971  0.03684678     0.22700
C1157       C  0.85403274  0.43701810  0.01585169    -0.39300
C1158       C  0.83338138  0.42222589  0.01960425     0.21500
N1159       N  0.80235078  0.40633605  0.04106299    -0.32600
C1160       C  0.79866990  0.40195256  0.01717169    -0.10100
C1161       C  0.81797572  0.41103313  0.00322418    -0.28900
N1162       N  0.88317046  0.46317674  0.03850769    -0.45500
C1163       C  0.88534889  0.46832478  0.06257782    -0.04800
C1164       C  0.86750201  0.45639681  0.07605796    -0.22200
H1165       H  0.82548481  0.42666927  0.08110652     0.19600
H1166       H  0.86133261  0.44042079  0.99790137     0.18400
H1167       H  0.81944793  0.41123145  0.98361612     0.14700
H1168       H  0.86466040  0.45710153  0.09552277     0.14600
H1169       H  0.79044408  0.40247007  0.05534753     0.32700
H1170       H  0.89414212  0.46946124  0.02434198     0.35500
C1171       C  0.99697512  0.77759018  0.17407542     0.21100
C1172       C  0.99083036  0.76290662  0.15404764    -0.38800
C1173       C  0.01035634  0.75118977  0.14250826     0.20100
C1174       C  0.03412271  0.75452312  0.15005976     0.22700
C1175       C  0.04023877  0.76913673  0.17003275    -0.39300
C1176       C  0.02072413  0.78032745  0.18189750     0.21500
N1177       N  0.98161707  0.78848441  0.18958348    -0.32600
C1178       C  0.99559724  0.79720626  0.20797720    -0.10100
C1179       C  0.02016325  0.79316077  0.20342277    -0.28900
N1180       N  0.04944565  0.74189834  0.13598836    -0.45500
C1181       C  0.03550140  0.73014010  0.11941263    -0.04800
C1182       C  0.01088233  0.73526503  0.12299253    -0.22200
H1183       H  0.97216460  0.76006988  0.14849232     0.19600
H1184       H  0.05878889  0.77103853  0.17631465     0.18400
H1185       H  0.03531098  0.79699535  0.21537523     0.14700
H1186       H  0.99558962  0.72869970  0.11249365     0.14600
H1187       H  0.96266598  0.78838961  0.18854603     0.32700
H1188       H  0.06836811  0.74136136  0.13757084     0.35500
C1189       C  0.17209040  0.75019117  0.04225495     0.21100
C1190       C  0.15548033  0.73241543  0.03424425    -0.38800
C1191       C  0.13947403  0.72328081  0.05193878     0.20100
C1192       C  0.14061875  0.73085685  0.07590589     0.22700
C1193       C  0.15805301  0.74758054  0.08416029    -0.39300
C1194       C  0.17346267  0.75731591  0.06636845     0.21500
N1195       N  0.18447223  0.76578708  0.02811910    -0.32600
C1196       C  0.19303091  0.78343230  0.04313813    -0.10100
C1197       C  0.18730580  0.77827523  0.06725493    -0.28900
N1198       N  0.12095476  0.72334298  0.08818114    -0.45500
C1199       C  0.10686909  0.71108733  0.07206748    -0.04800
C1200       C  0.11803336  0.71023009  0.04926433    -0.22200
H1201       H  0.15317928  0.72828578  0.01514254     0.19600
H1202       H  0.15768431  0.75467288  0.10251936     0.18400
H1203       H  0.18953763  0.79025062  0.08271937     0.14700
H1204       H  0.11020816  0.70363967  0.03245631     0.14600
H1205       H  0.18458361  0.76599318  0.00913441     0.32700
H1206       H  0.11646300  0.72798698  0.10605009     0.35500
C1207       C  0.94291335  0.71615285  0.17476811     0.21100
C1208       C  0.96139759  0.72055682  0.19189068    -0.38800
C1209       C  0.95593535  0.73772861  0.21012455     0.20100
C1210       C  0.93366871  0.74946777  0.21120667     0.22700
C1211       C  0.91482862  0.74404737  0.19496552    -0.39300
C1212       C  0.92039926  0.72721291  0.17666704     0.21500
N1213       N  0.94478201  0.70389476  0.15355768    -0.32600
C1214       C  0.92331528  0.70742740  0.14191600    -0.10100
C1215       C  0.90764337  0.72158361  0.15598712    -0.28900
N1216       N  0.93476377  0.76892409  0.22598424    -0.45500
C1217       C  0.95796342  0.77003293  0.23405583    -0.04800
C1218       C  0.97144701  0.75022209  0.22541548    -0.22200
H1219       H  0.97948049  0.71310309  0.18972905     0.19600
H1220       H  0.89793621  0.75413502  0.19497402     0.18400
H1221       H  0.88994144  0.72848879  0.15088712     0.14700
H1222       H  0.99090760  0.74769414  0.22688813     0.14600
H1223       H  0.96013346  0.69495653  0.14683712     0.32700
H1224       H  0.92139601  0.78224293  0.22810303     0.35500
C1225       C  0.84646925  0.74013571  0.05218089     0.21100
C1226       C  0.83690169  0.75730457  0.03597121    -0.38800
C1227       C  0.81275836  0.76442546  0.04028402     0.20100
C1228       C  0.79876680  0.75470908  0.05879499     0.22700
C1229       C  0.80847526  0.73783929  0.07530735    -0.39300
C1230       C  0.83286477  0.73113386  0.07135202     0.21500
N1231       N  0.86925885  0.73109443  0.05255114    -0.32600
C1232       C  0.87028006  0.71654012  0.07238063    -0.10100
C1233       C  0.84796635  0.71615908  0.08452758    -0.28900
N1234       N  0.77551649  0.76243069  0.05716699    -0.45500
C1235       C  0.77480219  0.77709608  0.03738238    -0.04800
C1236       C  0.79792805  0.77942845  0.02704518    -0.22200
H1237       H  0.84741473  0.76449318  0.02097297     0.19600
H1238       H  0.79778367  0.73028347  0.08999251     0.18400
H1239       H  0.84367075  0.70680593  0.10128366     0.14700
H1240       H  0.80277673  0.78919697  0.01068572     0.14600
H1241       H  0.88350937  0.73545289  0.04077485     0.32700
H1242       H  0.76083609  0.75691462  0.06787776     0.35500
C1243       C  0.93627287  0.74878511  0.88368122     0.21100
C1244       C  0.92977419  0.76206018  0.86300158    -0.38800
C1245       C  0.94805736  0.77658124  0.85304718     0.20100
C1246       C  0.97114537  0.77777270  0.86295949     0.22700
C1247       C  0.97766791  0.76446188  0.88383473    -0.39300
C1248       C  0.95929360  0.74970806  0.89376749     0.21500
N1249       N  0.92176461  0.73426448  0.89662929    -0.32600
C1250       C  0.93537108  0.72563135  0.91521661    -0.10100
C1251       C  0.95913290  0.73460608  0.91398879    -0.28900
N1252       N  0.98583593  0.79097443  0.84859462    -0.45500
C1253       C  0.97206103  0.79773796  0.82925104    -0.04800
C1254       C  0.94824248  0.78962988  0.83171145    -0.22200
H1255       H  0.91184383  0.76081802  0.85499493     0.19600
H1256       H  0.99585736  0.76499859  0.89131198     0.18400
H1257       H  0.97383148  0.73145375  0.92666163     0.14700
H1258       H  0.93375501  0.79095807  0.81848071     0.14600
H1259       H  0.90337351  0.73085795  0.89328149     0.32700
H1260       H  0.00447901  0.79372824  0.85093142     0.35500
C1261       C  0.83023579  0.73102177  0.95568985     0.21100
C1262       C  0.81481254  0.75059497  0.95042795    -0.38800
C1263       C  0.79384754  0.75234457  0.96468595     0.20100
C1264       C  0.78843447  0.73541351  0.98246586     0.22700
C1265       C  0.80364391  0.71537424  0.98732221    -0.39300
C1266       C  0.82506851  0.71401089  0.97343994     0.21500
N1267       N  0.85248044  0.72747169  0.94665338    -0.32600
C1268       C  0.86212043  0.70833432  0.95880134    -0.10100
C1269       C  0.84542422  0.69916001  0.97565896    -0.28900
N1270       N  0.76965973  0.74314756  0.99599403    -0.45500
C1271       C  0.76357084  0.76545746  0.98731710    -0.04800
C1272       C  0.77782439  0.77151653  0.96728842    -0.22200
H1273       H  0.81979544  0.76453325  0.93747705     0.19600
H1274       H  0.80005194  0.70297692  0.00215396     0.18400
H1275       H  0.84827186  0.68469910  0.98865946     0.14700
H1276       H  0.77853516  0.78885057  0.95803430     0.14600
H1277       H  0.86105874  0.73839314  0.93369964     0.32700
H1278       H  0.76293637  0.73479721  0.01166164     0.35500
C1279       C  0.13709969  0.79282573  0.98692434     0.21100
C1280       C  0.12722733  0.78102297  0.96663803    -0.38800
C1281       C  0.10829777  0.76460167  0.97134103     0.20100
C1282       C  0.09956309  0.76004847  0.99446867     0.22700
C1283       C  0.10913635  0.77235150  0.01487890    -0.39300
C1284       C  0.12820705  0.78896370  0.01014538     0.21500
N1285       N  0.15728232  0.80666880  0.98737748    -0.32600
C1286       C  0.16174134  0.81155235  0.01106455    -0.10100
C1287       C  0.14346553  0.80146108  0.02579723    -0.28900
N1288       N  0.08188452  0.74284572  0.99381389    -0.45500
C1289       C  0.07940385  0.73667727  0.96997933    -0.04800
C1290       C  0.09565137  0.74993484  0.95563892    -0.22200
H1291       H  0.13446437  0.78366797  0.94853343     0.19600
H1292       H  0.10290176  0.76858551  0.03315398     0.18400
H1293       H  0.14292429  0.80110549  0.04545392     0.14700
H1294       H  0.09795988  0.74893505  0.93611874     0.14600
H1295       H  0.16848270  0.81084663  0.97262101     0.32700
H1296       H  0.07203582  0.73597637  0.00851745     0.35500
C1297       C  0.04333196  0.72880188  0.86284473     0.21100
C1298       C  0.05146904  0.74527238  0.84522393    -0.38800
C1299       C  0.03463085  0.75145679  0.82725400     0.20100
C1300       C  0.01157549  0.74133601  0.82650932     0.22700
C1301       C  0.00385520  0.72380699  0.84349564    -0.39300
C1302       C  0.02052565  0.71819399  0.86200763     0.21500
N1303       N  0.05422502  0.72404647  0.88403884    -0.32600
C1304       C  0.03837914  0.71049419  0.89715829    -0.10100
C1305       C  0.01717256  0.70606059  0.88387183    -0.28900
N1306       N  0.99723273  0.75418091  0.81154411    -0.45500
C1307       C  0.01094615  0.77310113  0.80354502    -0.04800
C1308       C  0.03464941  0.77142502  0.81213960    -0.22200
H1309       H  0.06863638  0.75473679  0.84703755     0.19600
H1310       H  0.98527193  0.71732711  0.84399138     0.18400
H1311       H  0.00065093  0.69750580  0.89029178     0.14700
H1312       H  0.04865108  0.78520556  0.81089890     0.14600
H1313       H  0.07085705  0.73111970  0.88990359     0.32700
H1314       H  0.97849743  0.75195012  0.80937309     0.35500
loop_ 
_geom_bond_atom_site_label_1 
_geom_bond_atom_site_label_2 
_geom_bond_distance 
_geom_bond_site_symmetry_2 
_ccdc_geom_bond_type 
C1            N2   1.368       .  A
C1            N6   1.351       .  A
C1         C1289   1.490       .  S
N2            C3   1.375       .  A
C3            N4   1.368       .  A
C3           C51   1.487       .  S
N4            C5   1.361       .  A
C5            N6   1.350       .  A
C5         C1304   1.476       .  S
C7            N8   1.363       .  A
C7           N12   1.347       .  A
C7         C1268   1.478       .  S
N8            C9   1.371       .  A
C9           N10   1.369       .  A
C9           C57   1.473       .  S
N10          C11   1.360       .  A
C11          N12   1.346       .  A
C11        C1250   1.472       .  S
C13          N14   1.353       .  A
C13          N18   1.363       .  A
C13        C1214   1.480       .  S
N14          C15   1.351       .  A
C15          N16   1.364       .  A
C15        C1232   1.476       .  S
N16          C17   1.369       .  A
C17          N18   1.367       .  A
C17          C74   1.481       .  S
C19          N20   1.351       .  A
C19          N24   1.360       .  A
C19        C1181   1.473       .  S
N20          C21   1.351       .  A
C21          N22   1.363       .  A
C21        C1199   1.478       .  S
N22          C23   1.369       .  A
C23          N24   1.365       .  A
C23          C80   1.476       .  S
C25          N26   1.348       .  A
C25          N30   1.361       .  A
C25        C1142   1.475       .  S
N26          C27   1.348       .  A
C27          N28   1.363       .  A
C27        C1163   1.479       .  S
N28          C29   1.372       .  A
C29          N30   1.368       .  A
C29          C77   1.476       .  S
C31          N32   1.358       .  A
C31          N36   1.349       .  A
C31        C1106   1.471       .  S
N32          C33   1.365       .  A
C33          N34   1.369       .  A
C33          C54   1.471       .  S
N34          C35   1.362       .  A
C35          N36   1.351       .  A
C35        C1124   1.477       .  S
C37          N38   1.361       .  A
C37          N42   1.351       .  A
C37        C1070   1.479       .  S
N38          C39   1.368       .  A
C39          N40   1.369       .  A
C39          C60   1.478       .  S
N40          C41   1.363       .  A
C41          N42   1.351       .  A
C41        C1091   1.479       .  S
C43          N44   1.361       .  A
C43          N48   1.352       .  A
C43        C1037   1.469       .  S
N44          C45   1.364       .  A
C45          N46   1.366       .  A
C45          C71   1.475       .  S
N46          C47   1.363       .  A
C47          N48   1.354       .  A
C47        C1055   1.476       .  S
O49         Zr61   2.478       .  S
O49          C51   1.295       .  A
O50         Zr87   2.447   1_456  S
O50          C51   1.290       .  A
O52         Zr64   2.464       .  S
O52          C54   1.292       .  A
O53         Zr88   2.428   1_556  S
O53          C54   1.286       .  A
O55         Zr64   2.459       .  S
O55          C57   1.290       .  A
O56         Zr87   2.434   1_556  S
O56          C57   1.288       .  A
O58         Zr61   2.473       .  S
O58          C60   1.293       .  A
O59         Zr88   2.430   1_456  S
O59          C60   1.287       .  A
Zr61         O62   2.435       .  S
Zr61         O63   2.436       .  S
Zr61         O67   2.373   1_455  S
Zr61         O68   2.371   1_455  S
Zr61         O91   2.383   1_556  S
Zr61         O93   2.376   1_556  S
O62         H105   0.990   1_455  S
O63         H104   0.990       .  S
O63         H108   0.990       .  S
Zr64         O65   2.438       .  S
Zr64         O66   2.436       .  S
Zr64         O68   2.374       .  S
Zr64         O67   2.377       .  S
Zr64         O92   2.374   1_556  S
Zr64         O94   2.372   1_556  S
O65         H106   0.990       .  S
O65         H109   0.990       .  S
O66          H99   0.990       .  S
O67         Zr87   2.392   1_556  S
O68         Zr88   2.395   1_556  S
O68          H95   0.967       .  S
O69         Zr81   2.445       .  S
O69          C71   1.287       .  A
O70         Zr88   2.453   1_455  S
O70          C71   1.291       .  A
O72         Zr84   2.459       .  S
O72          C74   1.290       .  A
O73         Zr87   2.456       .  S
O73          C74   1.291       .  A
O75         Zr84   2.467       .  S
O75          C77   1.292       .  A
O76         Zr88   2.433       .  S
O76          C77   1.287       .  A
O78         Zr81   2.451       .  S
O78          C80   1.289       .  A
O79         Zr87   2.447   1_455  S
O79          C80   1.290       .  A
Zr81         O82   2.434       .  S
Zr81         O83   2.434       .  S
Zr81         O89   2.378   1_455  S
Zr81         O90   2.381   1_455  S
Zr81         O93   2.368       .  S
Zr81         O91   2.375       .  S
O82         H102   0.990       .  S
O82         H107   0.990       .  S
O83         H103   0.990       .  S
Zr84         O85   2.435       .  S
Zr84         O86   2.439       .  S
Zr84         O90   2.381       .  S
Zr84         O89   2.377       .  S
Zr84         O94   2.372       .  S
Zr84         O92   2.379       .  S
O85         H101   0.990       .  S
O86         H100   0.990       .  S
O86         H110   0.990       .  S
Zr87         O90   2.386       .  S
Zr87         O92   2.398       .  S
Zr87         O93   2.391   1_655  S
Zr88         O89   2.387       .  S
Zr88         O91   2.385   1_655  S
Zr88         O94   2.388       .  S
O89          H97   0.965       .  S
O92          H96   0.968       .  S
O93          H98   0.966       .  S
C111        N112   1.350       .  A
C111        N116   1.369       .  A
C111        C998   1.489       .  S
N112        C113   1.347       .  A
C113        N114   1.360       .  A
C113       C1019   1.477   1_545  S
N114        C115   1.369       .  A
C115        N116   1.376       .  A
C115        C161   1.486       .  S
C117        N118   1.351       .  A
C117        N122   1.365       .  A
C117        C983   1.480       .  S
N118        C119   1.349       .  A
C119        N120   1.362       .  A
C119        C962   1.475   1_545  S
N120        C121   1.368       .  A
C121        N122   1.370       .  A
C121        C167   1.480       .  S
C123        N124   1.362       .  A
C123        N128   1.354       .  A
C123        C926   1.478       .  S
N124        C125   1.366       .  A
C125        N126   1.366       .  A
C125        C184   1.475       .  S
N126        C127   1.362       .  A
C127        N128   1.352       .  A
C127        C944   1.474       .  S
C129        N130   1.361       .  A
C129        N134   1.349       .  A
C129        C893   1.473       .  S
N130        C131   1.366       .  A
C131        N132   1.370       .  A
C131        C190   1.477       .  S
N132        C133   1.363       .  A
C133        N134   1.350       .  A
C133        C908   1.475       .  S
C135        N136   1.363       .  A
C135        N140   1.351       .  A
C135        C854   1.471       .  S
N136        C137   1.367       .  A
C137        N138   1.362       .  A
C137        C187   1.469       .  S
N138        C139   1.357       .  A
C139        N140   1.348       .  A
C139        C872   1.458       .  S
C141        N142   1.367       .  A
C141        N146   1.352       .  A
C141        C821   1.488       .  S
N142        C143   1.374       .  A
C143        N144   1.371       .  A
C143        C164   1.491       .  S
N144        C145   1.364       .  A
C145        N146   1.350       .  A
C145        C839   1.485       .  S
C147        N148   1.349       .  A
C147        N152   1.363       .  A
C147        C782   1.477       .  S
N148        C149   1.350       .  A
C149        N150   1.359       .  A
C149        C800   1.474   1_545  S
N150        C151   1.366       .  A
C151        N152   1.368       .  A
C151        C170   1.468       .  S
C153        N154   1.366       .  A
C153        N158   1.350       .  A
C153        C764   1.483       .  S
N154        C155   1.373       .  A
C155        N156   1.365       .  A
C155        C181   1.478       .  S
N156        C157   1.359       .  A
C157        N158   1.348       .  A
C157        C746   1.467       .  S
O159       Zr171   2.457       .  S
O159        C161   1.291       .  A
O160       Zr197   2.461       .  S
O160        C161   1.292       .  A
O162       Zr174   2.474       .  S
O162        C164   1.293       .  A
O163       Zr198   2.453   1_556  S
O163        C164   1.291       .  A
O165       Zr174   2.468       .  S
O165        C167   1.293       .  A
O166       Zr197   2.444   1_556  S
O166        C167   1.290       .  A
O168       Zr171   2.442       .  S
O168        C170   1.287       .  A
O169       Zr198   2.441       .  S
O169        C170   1.289       .  A
Zr171       O172   2.434       .  S
Zr171       O173   2.436       .  S
Zr171       O177   2.376       .  S
Zr171       O178   2.379       .  S
Zr171       O201   2.382       .  S
Zr171       O203   2.363       .  S
O172        H215   0.990       .  S
O173        H214   0.990       .  S
O173        H218   0.990       .  S
Zr174       O175   2.436       .  S
Zr174       O176   2.434       .  S
Zr174       O178   2.380   1_556  S
Zr174       O177   2.384   1_556  S
Zr174       O202   2.378       .  S
Zr174       O204   2.369       .  S
O175        H216   0.990       .  S
O175        H219   0.990       .  S
O176        H209   0.990       .  S
O177       Zr197   2.391       .  S
O178       Zr198   2.391       .  S
O178        H205   0.965       .  S
O179       Zr191   2.463       .  S
O179        C181   1.291       .  A
O180       Zr198   2.446       .  S
O180        C181   1.290       .  A
O182       Zr194   2.450       .  S
O182        C184   1.289       .  A
O183       Zr197   2.451   1_556  S
O183        C184   1.291       .  A
O185       Zr194   2.469       .  S
O185        C187   1.292       .  A
O186       Zr198   2.420   1_556  S
O186        C187   1.285       .  A
O188       Zr191   2.462       .  S
O188        C190   1.291       .  A
O189       Zr197   2.445       .  S
O189        C190   1.290       .  A
Zr191       O192   2.436       .  S
Zr191       O193   2.435       .  S
Zr191       O199   2.376       .  S
Zr191       O200   2.380       .  S
Zr191       O203   2.373       .  S
Zr191       O201   2.381       .  S
O192        H212   0.990       .  S
O192        H217   0.990       .  S
O193        H213   0.990       .  S
Zr194       O195   2.435       .  S
Zr194       O196   2.435       .  S
Zr194       O200   2.385   1_556  S
Zr194       O199   2.365   1_556  S
Zr194       O204   2.365       .  S
Zr194       O202   2.373       .  S
O195        H211   0.990       .  S
O196        H210   0.990       .  S
O196        H220   0.990       .  S
Zr197       O200   2.396       .  S
Zr197       O202   2.398   1_554  S
Zr197       O203   2.385       .  S
Zr198       O199   2.393       .  S
Zr198       O201   2.389       .  S
Zr198       O204   2.386   1_554  S
O199        H207   0.966       .  S
O202        H206   0.966       .  S
O203        H208   0.964       .  S
C221        N222   1.351       .  A
C221        N226   1.361       .  A
C221        C713   1.479       .  S
N222        C223   1.354       .  A
C223        N224   1.363       .  A
C223        C728   1.477   1_545  S
N224        C225   1.367       .  A
C225        N226   1.365       .  A
C225        C277   1.475       .  S
C227        N228   1.368       .  A
C227        N232   1.349       .  A
C227        C692   1.491       .  S
N228        C229   1.376       .  A
C229        N230   1.369       .  A
C229        C271   1.486       .  S
N230        C231   1.361       .  A
C231        N232   1.349       .  A
C231        C674   1.477       .  S
C233        N234   1.351       .  A
C233        N238   1.365       .  A
C233        C638   1.472       .  S
N234        C235   1.347       .  A
C235        N236   1.354       .  A
C235        C659   1.456       .  S
N236        C237   1.361       .  A
C237        N238   1.369       .  A
C237        C300   1.467       .  S
C239        N240   1.363       .  A
C239        N244   1.350       .  A
C239        C605   1.476       .  S
N240        C241   1.370       .  A
C241        N242   1.366       .  A
C241        C294   1.475       .  S
N242        C243   1.360       .  A
C243        N244   1.348       .  A
C243        C623   1.470       .  S
C245        N246   1.363       .  A
C245        N250   1.352       .  A
C245        C566   1.475       .  S
N246        C247   1.367       .  A
C247        N248   1.369       .  A
C247        C291   1.484       .  S
N248        C249   1.366       .  A
C249        N250   1.354       .  A
C249        C584   1.483       .  S
C251        N252   1.361       .  A
C251        N256   1.350       .  A
C251        C533   1.473       .  S
N252        C253   1.367       .  A
C253        N254   1.368       .  A
C253        C280   1.475       .  S
N254        C255   1.361       .  A
C255        N256   1.349       .  A
C255        C548   1.475   1_545  S
C257        N258   1.351       .  A
C257        N262   1.365       .  A
C257        C494   1.483       .  S
N258        C259   1.349       .  A
C259        N260   1.360       .  A
C259        C512   1.474       .  S
N260        C261   1.366       .  A
C261        N262   1.372       .  A
C261        C274   1.478       .  S
C263        N264   1.350       .  A
C263        N268   1.363       .  A
C263        C461   1.478       .  S
N264        C265   1.348       .  A
C265        N266   1.360       .  A
C265        C479   1.471       .  S
N266        C267   1.367       .  A
C267        N268   1.369       .  A
C267        C297   1.473       .  S
O269       Zr281   2.479       .  S
O269        C271   1.294       .  A
O270       Zr307   2.450       .  S
O270        C271   1.291       .  A
O272       Zr284   2.448       .  S
O272        C274   1.287       .  A
O273       Zr308   2.454   1_455  S
O273        C274   1.291       .  A
O275       Zr284   2.435       .  S
O275        C277   1.285       .  A
O276       Zr307   2.461   1_455  S
O276        C277   1.292       .  A
O278       Zr281   2.460       .  S
O278        C280   1.291       .  A
O279       Zr308   2.439       .  S
O279        C280   1.289       .  A
Zr281       O282   2.435       .  S
Zr281       O283   2.435       .  S
Zr281       O287   2.383       .  S
Zr281       O288   2.386       .  S
Zr281       O311   2.380       .  S
Zr281       O313   2.371       .  S
O282        H325   0.990       .  S
O283        H324   0.990       .  S
O283        H328   0.990       .  S
Zr284       O285   2.438       .  S
Zr284       O286   2.436       .  S
Zr284       O288   2.373   1_455  S
Zr284       O287   2.386   1_455  S
Zr284       O312   2.378       .  S
Zr284       O314   2.370       .  S
O285        H326   0.990       .  S
O285        H329   0.990       .  S
O286        H319   0.990       .  S
O287       Zr307   2.387       .  S
O288       Zr308   2.394       .  S
O288        H315   0.965       .  S
O289       Zr301   2.464       .  S
O289        C291   1.291       .  A
O290       Zr308   2.453       .  S
O290        C291   1.291       .  A
O292       Zr304   2.458       .  S
O292        C294   1.290       .  A
O293       Zr307   2.440   1_455  S
O293        C294   1.289       .  A
O295       Zr304   2.452       .  S
O295        C297   1.289       .  A
O296       Zr308   2.443   1_455  S
O296        C297   1.289       .  A
O298       Zr301   2.463       .  S
O298        C300   1.292       .  A
O299       Zr307   2.424       .  S
O299        C300   1.286       .  A
Zr301       O302   2.434       .  S
Zr301       O303   2.435       .  S
Zr301       O309   2.372       .  S
Zr301       O310   2.371       .  S
Zr301       O313   2.366       .  S
Zr301       O311   2.376       .  S
O302        H322   0.990       .  S
O302        H327   0.990       .  S
O303        H323   0.990       .  S
Zr304       O305   2.435       .  S
Zr304       O306   2.436       .  S
Zr304       O310   2.362   1_455  S
Zr304       O309   2.377   1_455  S
Zr304       O314   2.375       .  S
Zr304       O312   2.382       .  S
O305        H321   0.990       .  S
O306        H320   0.990       .  S
O306        H330   0.990       .  S
Zr307       O310   2.392       .  S
Zr307       O312   2.390   1_655  S
Zr307       O313   2.396       .  S
Zr308       O309   2.394       .  S
Zr308       O311   2.392       .  S
Zr308       O314   2.385   1_655  S
O309        H317   0.966       .  S
O312        H316   0.967       .  S
O313        H318   0.965       .  S
C331        S332   1.804       .  S
C331        S335   1.801   1_655  S
C331        C339   1.352       .  D
S332        C333   1.794       .  S
C333        C334   1.349       .  D
C333        C569   1.489       .  S
C334        S335   1.794   1_655  S
C334        C458   1.488   1_655  S
C336        S340   1.794   1_655  S
C336        C337   1.347       .  D
C336       C1034   1.487   1_655  S
C337        S338   1.793       .  S
C337       C1145   1.485       .  S
S338        C339   1.800       .  S
C339        S340   1.803   1_655  S
C341        S342   1.803       .  S
C341        S345   1.807       .  S
C341        C349   1.359       .  D
S342        C343   1.795       .  S
C343        C344   1.349       .  D
C343        C476   1.487       .  S
C344        S345   1.800       .  S
C344        C497   1.490       .  S
C346        S350   1.799       .  S
C346        C347   1.350       .  D
C346        C785   1.490       .  S
C347        S348   1.793       .  S
C347        C749   1.486       .  S
S348        C349   1.804       .  S
C349        S350   1.805       .  S
C351        S352   1.802       .  S
C351        S355   1.803       .  S
C351        C359   1.359       .  D
S352        C353   1.801       .  S
C353        C354   1.350       .  D
C353       C1052   1.483       .  S
C354        S355   1.795       .  S
C354       C1073   1.492       .  S
C356        S360   1.792       .  S
C356        C357   1.350       .  D
C356        C857   1.482       .  S
C357        S358   1.803       .  S
C357        C767   1.493       .  S
S358        C359   1.808       .  S
C359        S360   1.801       .  S
C361        S362   1.799       .  S
C361        S365   1.809       .  S
C361        C369   1.359       .  D
S362        C363   1.798       .  S
C363        C364   1.350       .  D
C363        C911   1.478       .  S
C364        S365   1.797       .  S
C364       C1001   1.498       .  S
C366        S370   1.793       .  S
C366        C367   1.351       .  D
C366        C530   1.482       .  S
C367        S368   1.804       .  S
C367        C587   1.495       .  S
S368        C369   1.810       .  S
C369        S370   1.796       .  S
C371        S372   1.801       .  S
C371        S375   1.800       .  S
C371        C379   1.355       .  D
S372        C373   1.794       .  S
C373        C374   1.351       .  D
C373        C515   1.489       .  S
C374        S375   1.795       .  S
C374        C551   1.482       .  S
C376        S380   1.795       .  S
C376        C377   1.350       .  D
C376       C1217   1.487       .  S
C377        S378   1.793       .  S
C377       C1178   1.484       .  S
S378        C379   1.799       .  S
C379        S380   1.803       .  S
C381        S382   1.802       .  S
C381        S385   1.802       .  S
C381        C389   1.356       .  D
S382        C383   1.790       .  S
C383        C384   1.351       .  D
C383        C620   1.487       .  S
C384        S385   1.801       .  S
C384        C710   1.488       .  S
C386        S390   1.803       .  S
C386        C387   1.347       .  D
C386        C818   1.496       .  S
C387        S388   1.784       .  S
C387        C875   1.471       .  S
S388        C389   1.798       .  S
C389        S390   1.810       .  S
C391        S392   1.801       .  S
C391        S395   1.803   1_655  S
C391        C399   1.356       .  D
S392        C393   1.795       .  S
C393        C394   1.350   1_655  D
C393       C1127   1.490       .  S
C394        S395   1.796       .  S
C394       C1088   1.483       .  S
C396        S400   1.795   1_655  S
C396        C397   1.347       .  D
C396        C602   1.485   1_655  S
C397        S398   1.793       .  S
C397        C641   1.484       .  S
S398        C399   1.804       .  S
C399        S400   1.804   1_655  S
C401        S402   1.809       .  S
C401        S405   1.801       .  S
C401        C409   1.363       .  D
S402        C403   1.806       .  S
C403        C404   1.353       .  D
C403        C836   1.500       .  S
C404        S405   1.797       .  S
C404        C803   1.484       .  S
C406        S410   1.798       .  S
C406        C407   1.351       .  D
C406       C1196   1.487       .  S
C407        S408   1.805       .  S
C407       C1286   1.496       .  S
S408        C409   1.806       .  S
C409        S410   1.806       .  S
C411        S412   1.800   1_556  S
C411        S415   1.802       .  S
C411        C419   1.354       .  D
S412        C413   1.791       .  S
C413        C414   1.350   1_554  D
C413        C890   1.483       .  S
C414        S415   1.795       .  S
C414        C929   1.485       .  S
C416        S420   1.794       .  S
C416        C417   1.348   1_556  D
C416       C1109   1.479       .  S
C417        S418   1.791       .  S
C417       C1160   1.486       .  S
S418        C419   1.802   1_554  S
C419        S420   1.802       .  S
C421        S422   1.803   1_655  S
C421        S425   1.800       .  S
C421        C429   1.353       .  D
S422        C423   1.793       .  S
C423        C424   1.348   1_455  D
C423       C1307   1.483       .  S
C424        S425   1.790       .  S
C424       C1253   1.482       .  S
C426        S430   1.791       .  S
C426        C427   1.349   1_655  D
C426        C677   1.485       .  S
C427        S428   1.794       .  S
C427        C731   1.482       .  S
S428        C429   1.801   1_455  S
C429        S430   1.801       .  S
C431        S432   1.806       .  S
C431        S435   1.803       .  S
C431        C439   1.359       .  D
S432        C433   1.793       .  S
C433        C434   1.349       .  D
C433        C947   1.491       .  S
C434        S435   1.802       .  S
C434        C980   1.485       .  S
C436        S440   1.804       .  S
C436        C437   1.348       .  D
C436        C695   1.498       .  S
C437        S438   1.790       .  S
C437        C656   1.477       .  S
S438        C439   1.799       .  S
C439        S440   1.811       .  S
C441        S442   1.803       .  S
C441        S445   1.804   1_554  S
C441        C449   1.357       .  D
S442        C443   1.797       .  S
C443        C444   1.349       .  D
C443       C1016   1.486       .  S
C444        S445   1.799   1_554  S
C444        C965   1.494   1_554  S
C446        S450   1.797   1_554  S
C446        C447   1.348       .  D
C446       C1271   1.488   1_554  S
C447        S448   1.797       .  S
C447       C1235   1.493       .  S
S448        C449   1.806       .  S
C449        S450   1.804   1_554  S
C451        N457   1.346       .  A
C451        C456   1.385       .  A
C451        C452   1.399       .  A
C452        C453   1.402       .  A
C452        H463   1.083       .  S
C453        C462   1.368       .  A
C453        C454   1.384       .  A
C454        N460   1.351       .  A
C454        C455   1.405       .  A
C455        C456   1.408       .  A
C455        H464   1.083   1_455  S
C456        C459   1.374   1_455  A
N457        C458   1.353       .  A
N457        H467   1.045       .  S
C458        C459   1.400   1_455  A
C459        H465   1.082       .  S
N460        C461   1.357       .  A
N460        H468   1.044       .  S
C461        C462   1.396       .  A
C462        H466   1.083       .  S
C469        N475   1.343       .  A
C469        C474   1.383       .  A
C469        C470   1.410       .  A
C470        C471   1.406       .  A
C470        H481   1.083       .  S
C471        C480   1.389       .  A
C471        C472   1.384       .  A
C472        N478   1.337       .  A
C472        C473   1.402       .  A
C473        C474   1.398       .  A
C473        H482   1.082       .  S
C474        C477   1.380       .  A
N475        C476   1.360       .  A
N475        H485   1.044       .  S
C476        C477   1.392       .  A
C477        H483   1.082       .  S
N478        C479   1.354       .  A
N478        H486   1.045       .  S
C479        C480   1.398       .  A
C480        H484   1.082       .  S
C487        N493   1.338       .  A
C487        C492   1.383       .  A
C487        C488   1.403       .  A
C488        C489   1.400       .  A
C488        H499   1.083       .  S
C489        C498   1.383       .  A
C489        C490   1.384       .  A
C490        N496   1.344       .  A
C490        C491   1.412       .  A
C491        C492   1.407       .  A
C491        H500   1.082       .  S
C492        C495   1.392       .  A
N493        C494   1.357       .  A
N493        H503   1.045       .  S
C494        C495   1.400       .  A
C495        H501   1.082       .  S
N496        C497   1.360       .  A
N496        H504   1.045       .  S
C497        C498   1.393       .  A
C498        H502   1.082       .  S
C505        N511   1.339       .  A
C505        C510   1.384       .  A
C505        C506   1.403       .  A
C506        C507   1.400       .  A
C506        H517   1.082       .  S
C507        C516   1.380       .  A
C507        C508   1.383   1_455  A
C508        N514   1.342       .  A
C508        C509   1.407       .  A
C509        C510   1.404   1_655  A
C509        H518   1.083       .  S
C510        C513   1.386       .  A
N511        C512   1.356   1_565  A
N511        H521   1.045       .  S
C512        C513   1.397   1_545  A
C513        H519   1.082   1_465  S
N514        C515   1.359       .  A
N514        H522   1.043       .  S
C515        C516   1.394   1_655  A
C516        H520   1.082       .  S
C523        N529   1.342       .  A
C523        C528   1.384       .  A
C523        C524   1.408       .  A
C524        C525   1.405       .  A
C524        H535   1.082       .  S
C525        C534   1.387       .  A
C525        C526   1.384       .  A
C526        N532   1.336       .  A
C526        C527   1.400       .  A
C527        C528   1.397       .  A
C527        H536   1.083       .  S
C528        C531   1.376       .  A
N529        C530   1.358       .  A
N529        H539   1.044       .  S
C530        C531   1.391       .  A
C531        H537   1.082       .  S
N532        C533   1.355       .  A
N532        H540   1.045       .  S
C533        C534   1.398       .  A
C534        H538   1.082       .  S
C541        N547   1.339       .  A
C541        C546   1.384       .  A
C541        C542   1.402       .  A
C542        C543   1.400       .  A
C542        H553   1.083       .  S
C543        C552   1.380       .  A
C543        C544   1.386       .  A
C544        N550   1.343       .  A
C544        C545   1.407       .  A
C545        C546   1.404       .  A
C545        H554   1.082       .  S
C546        C549   1.387       .  A
N547        C548   1.356       .  A
N547        H557   1.045       .  S
C548        C549   1.396       .  A
C549        H555   1.082       .  S
N550        C551   1.357       .  A
N550        H558   1.045       .  S
C551        C552   1.392       .  A
C552        H556   1.083       .  S
C559        N565   1.343       .  A
C559        C564   1.384       .  A
C559        C560   1.407       .  A
C560        C561   1.404       .  A
C560        H571   1.082       .  S
C561        C570   1.385       .  A
C561        C562   1.384       .  A
C562        N568   1.340       .  A
C562        C563   1.406       .  A
C563        C564   1.403       .  A
C563        H572   1.082       .  S
C564        C567   1.384       .  A
N565        C566   1.357       .  A
N565        H575   1.045       .  S
C566        C567   1.395       .  A
C567        H573   1.082       .  S
N568        C569   1.359       .  A
N568        H576   1.045       .  S
C569        C570   1.395       .  A
C570        H574   1.082       .  S
C577        N583   1.342       .  A
C577        C582   1.383       .  A
C577        C578   1.405       .  A
C578        C579   1.403       .  A
C578        H589   1.083       .  S
C579        C588   1.384       .  A
C579        C580   1.385       .  A
C580        N586   1.346       .  A
C580        C581   1.411       .  A
C581        C582   1.407       .  A
C581        H590   1.082       .  S
C582        C585   1.389       .  A
N583        C584   1.358       .  A
N583        H593   1.045       .  S
C584        C585   1.399       .  A
C585        H591   1.082       .  S
N586        C587   1.360       .  A
N586        H594   1.045       .  S
C587        C588   1.395       .  A
C588        H592   1.082       .  S
C595        N601   1.344   1_455  A
C595        C600   1.385       .  A
C595        C596   1.411       .  A
C596        C597   1.407       .  A
C596        H607   1.082   1_455  S
C597        C606   1.391       .  A
C597        C598   1.384       .  A
C598        N604   1.336       .  A
C598        C599   1.400       .  A
C599        C600   1.397       .  A
C599        H608   1.083       .  S
C600        C603   1.379       .  A
N601        C602   1.360   1_655  A
N601        H611   1.045       .  S
C602        C603   1.390       .  A
C603        H609   1.082       .  S
N604        C605   1.355       .  A
N604        H612   1.045       .  S
C605        C606   1.399       .  A
C606        H610   1.082   1_455  S
C613        N619   1.345       .  A
C613        C618   1.385       .  A
C613        C614   1.401       .  A
C614        C615   1.402       .  A
C614        H625   1.083       .  S
C615        C624   1.372       .  A
C615        C616   1.385       .  A
C616        N622   1.348       .  A
C616        C617   1.403       .  A
C617        C618   1.404       .  A
C617        H626   1.082       .  S
C618        C621   1.374       .  A
N619        C620   1.355       .  A
N619        H629   1.045       .  S
C620        C621   1.398       .  A
C621        H627   1.082       .  S
N622        C623   1.355       .  A
N622        H630   1.044       .  S
C623        C624   1.396       .  A
C624        H628   1.083       .  S
C631        N637   1.352       .  A
C631        C636   1.384       .  A
C631        C632   1.407       .  A
C632        C633   1.410       .  A
C632        H643   1.082       .  S
C633        C642   1.379       .  A
C633        C634   1.386       .  A
C634        N640   1.344       .  A
C634        C635   1.398       .  A
C635        C636   1.399       .  A
C635        H644   1.082       .  S
C636        C639   1.368       .  A
N637        C638   1.358       .  A
N637        H647   1.045       .  S
C638        C639   1.392       .  A
C639        H645   1.083       .  S
N640        C641   1.352       .  A
N640        H648   1.045       .  S
C641        C642   1.401       .  A
C642        H646   1.082   1_655  S
C649        N655   1.338       .  A
C649        C654   1.385       .  A
C649        C650   1.401       .  A
C650        C651   1.399       .  A
C650        H661   1.083       .  S
C651        C660   1.377       .  A
C651        C652   1.385       .  A
C652        N658   1.340       .  A
C652        C653   1.402       .  A
C653        C654   1.400       .  A
C653        H662   1.082       .  S
C654        C657   1.379       .  A
N655        C656   1.355       .  A
N655        H665   1.044       .  S
C656        C657   1.392       .  A
C657        H663   1.082       .  S
N658        C659   1.353       .  A
N658        H666   1.045       .  S
C659        C660   1.391       .  A
C660        H664   1.083       .  S
C667        N673   1.352   1_565  A
C667        C672   1.384       .  A
C667        C668   1.407       .  A
C668        C669   1.410       .  A
C668        H679   1.082       .  S
C669        C678   1.378       .  A
C669        C670   1.385       .  A
C670        N676   1.344       .  A
C670        C671   1.398       .  A
C671        C672   1.399       .  A
C671        H680   1.083       .  S
C672        C675   1.367       .  A
N673        C674   1.358       .  A
N673        H683   1.044       .  S
C674        C675   1.394   1_545  A
C675        H681   1.083       .  S
N676        C677   1.352       .  A
N676        H684   1.045       .  S
C677        C678   1.401       .  A
C678        H682   1.082   1_655  S
C685        N691   1.339       .  A
C685        C690   1.382       .  A
C685        C686   1.405       .  A
C686        C687   1.401       .  A
C686        H697   1.082       .  S
C687        C696   1.384       .  A
C687        C688   1.383       .  A
C688        N694   1.348       .  A
C688        C689   1.416       .  A
C689        C690   1.412       .  A
C689        H698   1.082       .  S
C690        C693   1.398       .  A
N691        C692   1.358       .  A
N691        H701   1.045       .  S
C692        C693   1.403       .  A
C693        H699   1.082       .  S
N694        C695   1.363       .  A
N694        H702   1.045       .  S
C695        C696   1.394       .  A
C696        H700   1.082       .  S
C703        N709   1.343       .  A
C703        C708   1.385       .  A
C703        C704   1.406       .  A
C704        C705   1.403       .  A
C704        H715   1.082       .  S
C705        C714   1.384       .  A
C705        C706   1.384       .  A
C706        N712   1.343       .  A
C706        C707   1.406       .  A
C707        C708   1.404       .  A
C707        H716   1.082       .  S
C708        C711   1.383       .  A
N709        C710   1.358       .  A
N709        H719   1.045       .  S
C710        C711   1.394       .  A
C711        H717   1.082       .  S
N712        C713   1.358       .  A
N712        H720   1.045       .  S
C713        C714   1.396       .  A
C714        H718   1.082       .  S
C721        N727   1.337       .  A
C721        C726   1.384       .  A
C721        C722   1.400       .  A
C722        C723   1.397       .  A
C722        H733   1.082       .  S
C723        C732   1.378       .  A
C723        C724   1.385       .  A
C724        N730   1.343   1_455  A
C724        C725   1.409       .  A
C725        C726   1.406       .  A
C725        H734   1.083   1_455  S
C726        C729   1.388       .  A
N727        C728   1.355       .  A
N727        H737   1.045       .  S
C728        C729   1.399       .  A
C729        H735   1.082       .  S
N730        C731   1.359   1_655  A
N730        H738   1.045       .  S
C731        C732   1.390       .  A
C732        H736   1.082       .  S
C739        N745   1.347       .  A
C739        C744   1.385       .  A
C739        C740   1.403       .  A
C740        C741   1.405       .  A
C740        H751   1.082       .  S
C741        C750   1.375       .  A
C741        C742   1.385       .  A
C742        N748   1.346       .  A
C742        C743   1.402       .  A
C743        C744   1.402       .  A
C743        H752   1.082       .  S
C744        C747   1.373       .  A
N745        C746   1.355       .  A
N745        H755   1.045       .  S
C746        C747   1.394       .  A
C747        H753   1.083       .  S
N748        C749   1.354       .  A
N748        H756   1.045       .  S
C749        C750   1.399       .  A
C750        H754   1.082       .  S
C757        N763   1.339       .  A
C757        C762   1.383       .  A
C757        C758   1.404       .  A
C758        C759   1.400       .  A
C758        H769   1.083       .  S
C759        C768   1.382       .  A
C759        C760   1.384       .  A
C760        N766   1.347       .  A
C760        C761   1.413       .  A
C761        C762   1.409       .  A
C761        H770   1.082       .  S
C762        C765   1.393       .  A
N763        C764   1.357       .  A
N763        H773   1.045       .  S
C764        C765   1.401       .  A
C765        H771   1.082       .  S
N766        C767   1.362       .  A
N766        H774   1.045       .  S
C767        C768   1.393       .  A
C768        H772   1.082       .  S
C775        N781   1.337       .  A
C775        C780   1.383       .  A
C775        C776   1.403       .  A
C776        C777   1.400       .  A
C776        H787   1.083       .  S
C777        C786   1.382       .  A
C777        C778   1.384       .  A
C778        N784   1.343       .  A
C778        C779   1.409       .  A
C779        C780   1.405       .  A
C779        H788   1.082       .  S
C780        C783   1.389       .  A
N781        C782   1.357       .  A
N781        H791   1.045       .  S
C782        C783   1.398       .  A
C783        H789   1.082       .  S
N784        C785   1.360       .  A
N784        H792   1.044       .  S
C785        C786   1.394       .  A
C786        H790   1.082       .  S
C793        N799   1.351       .  A
C793        C798   1.384       .  A
C793        C794   1.407       .  A
C794        C795   1.409       .  A
C794        H805   1.082       .  S
C795        C804   1.380       .  A
C795        C796   1.387       .  A
C796        N802   1.343       .  A
C796        C797   1.398       .  A
C797        C798   1.398       .  A
C797        H806   1.083       .  S
C798        C801   1.368       .  A
N799        C800   1.358       .  A
N799        H809   1.045       .  S
C800        C801   1.393       .  A
C801        H807   1.083       .  S
N802        C803   1.352       .  A
N802        H810   1.045       .  S
C803        C804   1.400       .  A
C804        H808   1.082       .  S
C811        N817   1.347       .  A
C811        C816   1.383       .  A
C811        C812   1.415       .  A
C812        C813   1.411       .  A
C812        H823   1.082       .  S
C813        C822   1.396       .  A
C813        C814   1.383       .  A
C814        N820   1.339       .  A
C814        C815   1.404       .  A
C815        C816   1.400       .  A
C815        H824   1.082       .  S
C816        C819   1.383       .  A
N817        C818   1.362       .  A
N817        H827   1.044       .  S
C818        C819   1.393       .  A
C819        H825   1.082       .  S
N820        C821   1.357       .  A
N820        H828   1.045       .  S
C821        C822   1.402       .  A
C822        H826   1.082       .  S
C829        N835   1.350       .  A
C829        C834   1.384   1_556  A
C829        C830   1.405       .  A
C830        C831   1.406       .  A
C830        H841   1.082       .  S
C831        C840   1.375       .  A
C831        C832   1.384       .  A
C832        N838   1.352   1_565  A
C832        C833   1.407   1_556  A
C833        C834   1.410       .  A
C833        H842   1.082       .  S
C834        C837   1.379       .  A
N835        C836   1.356   1_556  A
N835        H845   1.044       .  S
C836        C837   1.402       .  A
C837        H843   1.082       .  S
N838        C839   1.358       .  A
N838        H846   1.044   1_556  S
C839        C840   1.399   1_545  A
C840        H844   1.083       .  S
C847        N853   1.337       .  A
C847        C852   1.384       .  A
C847        C848   1.401       .  A
C848        C849   1.398       .  A
C848        H859   1.082       .  S
C849        C858   1.378       .  A
C849        C850   1.384   1_556  A
C850        N856   1.342       .  A
C850        C851   1.408       .  A
C851        C852   1.404   1_554  A
C851        H860   1.083       .  S
C852        C855   1.387       .  A
N853        C854   1.355       .  A
N853        H863   1.045       .  S
C854        C855   1.397       .  A
C855        H861   1.082   1_556  S
N856        C857   1.358       .  A
N856        H864   1.044       .  S
C857        C858   1.391   1_554  A
C858        H862   1.082       .  S
C865        N871   1.342       .  A
C865        C870   1.385       .  A
C865        C866   1.401       .  A
C866        C867   1.400       .  A
C866        H877   1.083       .  S
C867        C876   1.373       .  A
C867        C868   1.385       .  A
C868        N874   1.342       .  A
C868        C869   1.401       .  A
C869        C870   1.401       .  A
C869        H878   1.082       .  S
C870        C873   1.375       .  A
N871        C872   1.354       .  A
N871        H881   1.045       .  S
C872        C873   1.392       .  A
C873        H879   1.082       .  S
N874        C875   1.352       .  A
N874        H882   1.045       .  S
C875        C876   1.395       .  A
C876        H880   1.083       .  S
C883        N889   1.344       .  A
C883        C888   1.385       .  A
C883        C884   1.400       .  A
C884        C885   1.401       .  A
C884        H895   1.083       .  S
C885        C894   1.371       .  A
C885        C886   1.385       .  A
C886        N892   1.349       .  A
C886        C887   1.404       .  A
C887        C888   1.406       .  A
C887        H896   1.082   1_554  S
C888        C891   1.377       .  A
N889        C890   1.354       .  A
N889        H899   1.045       .  S
C890        C891   1.398       .  A
C891        H897   1.082   1_554  S
N892        C893   1.356       .  A
N892        H900   1.045       .  S
C893        C894   1.395       .  A
C894        H898   1.083       .  S
C901        N907   1.351       .  A
C901        C906   1.385       .  A
C901        C902   1.405       .  A
C902        C903   1.407       .  A
C902        H913   1.082       .  S
C903        C912   1.377       .  A
C903        C904   1.387       .  A
C904        N910   1.344       .  A
C904        C905   1.399       .  A
C905        C906   1.400       .  A
C905        H914   1.083       .  S
C906        C909   1.369       .  A
N907        C908   1.357       .  A
N907        H917   1.045       .  S
C908        C909   1.394       .  A
C909        H915   1.083       .  S
N910        C911   1.352       .  A
N910        H918   1.045       .  S
C911        C912   1.397       .  A
C912        H916   1.083       .  S
C919        N925   1.350       .  A
C919        C924   1.384       .  A
C919        C920   1.406       .  A
C920        C921   1.408       .  A
C920        H931   1.083   1_556  S
C921        C930   1.380       .  A
C921        C922   1.386       .  A
C922        N928   1.344       .  A
C922        C923   1.400       .  A
C923        C924   1.401       .  A
C923        H932   1.083       .  S
C924        C927   1.373       .  A
N925        C926   1.357       .  A
N925        H935   1.045       .  S
C926        C927   1.395       .  A
C927        H933   1.083       .  S
N928        C929   1.352       .  A
N928        H936   1.045       .  S
C929        C930   1.400       .  A
C930        H934   1.083   1_556  S
C937        N943   1.350       .  A
C937        C942   1.385       .  A
C937        C938   1.406       .  A
C938        C939   1.408       .  A
C938        H949   1.083       .  S
C939        C948   1.378       .  A
C939        C940   1.384       .  A
C940        N946   1.347       .  A
C940        C941   1.402       .  A
C941        C942   1.403       .  A
C941        H950   1.082       .  S
C942        C945   1.375       .  A
N943        C944   1.357       .  A
N943        H953   1.045       .  S
C944        C945   1.395       .  A
C945        H951   1.083       .  S
N946        C947   1.354       .  A
N946        H954   1.044       .  S
C947        C948   1.401       .  A
C948        H952   1.082       .  S
C955        N961   1.351       .  A
C955        C960   1.385       .  A
C955        C956   1.406       .  A
C956        C957   1.408       .  A
C956        H967   1.083   1_556  S
C957        C966   1.375   1_556  A
C957        C958   1.384       .  A
C958        N964   1.348       .  A
C958        C959   1.402       .  A
C959        C960   1.404       .  A
C959        H968   1.082       .  S
C960        C963   1.372       .  A
N961        C962   1.357       .  A
N961        H971   1.045   1_565  S
C962        C963   1.395       .  A
C963        H969   1.083       .  S
N964        C965   1.354       .  A
N964        H972   1.044       .  S
C965        C966   1.402   1_556  A
C966        H970   1.082       .  S
C973        N979   1.343       .  A
C973        C978   1.385       .  A
C973        C974   1.410       .  A
C974        C975   1.406       .  A
C974        H985   1.082       .  S
C975        C984   1.391       .  A
C975        C976   1.383       .  A
C976        N982   1.337       .  A
C976        C977   1.402       .  A
C977        C978   1.398       .  A
C977        H986   1.083       .  S
C978        C981   1.380       .  A
N979        C980   1.359       .  A
N979        H989   1.045       .  S
C980        C981   1.392       .  A
C981        H987   1.082       .  S
N982        C983   1.356       .  A
N982        H990   1.045       .  S
C983        C984   1.399       .  A
C984        H988   1.082       .  S
C991        N997   1.358       .  A
C991        C996   1.383       .  A
C991        C992   1.413       .  A
C992        C993   1.416       .  A
C992       H1003   1.082       .  S
C993       C1002   1.385       .  A
C993        C994   1.385       .  A
C994       N1000   1.346       .  A
C994        C995   1.400       .  A
C995        C996   1.401       .  A
C995       H1004   1.083       .  S
C996        C999   1.368       .  A
N997        C998   1.361       .  A
N997       H1007   1.044       .  S
C998        C999   1.397       .  A
C999       H1005   1.083       .  S
N1000      C1001   1.353       .  A
N1000      H1008   1.045       .  S
C1001      C1002   1.405       .  A
C1002      H1006   1.082       .  S
C1009      N1015   1.341       .  A
C1009      C1014   1.385       .  A
C1009      C1010   1.407       .  A
C1010      C1011   1.403       .  A
C1010      H1021   1.082       .  S
C1011      C1020   1.387       .  A
C1011      C1012   1.384       .  A
C1012      N1018   1.338       .  A
C1012      C1013   1.404       .  A
C1013      C1014   1.400       .  A
C1013      H1022   1.083       .  S
C1014      C1017   1.383       .  A
N1015      C1016   1.358       .  A
N1015      H1025   1.045       .  S
C1016      C1017   1.393       .  A
C1017      H1023   1.082       .  S
N1018      C1019   1.357       .  A
N1018      H1026   1.045       .  S
C1019      C1020   1.396       .  A
C1020      H1024   1.082       .  S
C1027      N1033   1.339   1_455  A
C1027      C1032   1.384       .  A
C1027      C1028   1.403       .  A
C1028      C1029   1.400       .  A
C1028      H1039   1.083   1_455  S
C1029      C1038   1.381       .  A
C1029      C1030   1.384       .  A
C1030      N1036   1.343       .  A
C1030      C1031   1.406       .  A
C1031      C1032   1.404       .  A
C1031      H1040   1.082       .  S
C1032      C1035   1.385       .  A
N1033      C1034   1.358   1_655  A
N1033      H1043   1.045       .  S
C1034      C1035   1.395       .  A
C1035      H1041   1.082       .  S
N1036      C1037   1.357       .  A
N1036      H1044   1.045       .  S
C1037      C1038   1.393       .  A
C1038      H1042   1.082       .  S
C1045      N1051   1.344       .  A
C1045      C1050   1.386       .  A
C1045      C1046   1.408       .  A
C1046      C1047   1.405       .  A
C1046      H1057   1.083       .  S
C1047      C1056   1.386       .  A
C1047      C1048   1.384       .  A
C1048      N1054   1.340       .  A
C1048      C1049   1.401       .  A
C1049      C1050   1.400       .  A
C1049      H1058   1.083       .  S
C1050      C1053   1.379       .  A
N1051      C1052   1.359       .  A
N1051      H1061   1.045       .  S
C1052      C1053   1.391       .  A
C1053      H1059   1.082       .  S
N1054      C1055   1.356       .  A
N1054      H1062   1.045       .  S
C1055      C1056   1.397       .  A
C1056      H1060   1.082       .  S
C1063      N1069   1.337       .  A
C1063      C1068   1.383       .  A
C1063      C1064   1.400       .  A
C1064      C1065   1.397       .  A
C1064      H1075   1.082       .  S
C1065      C1074   1.377       .  A
C1065      C1066   1.383   1_556  A
C1066      N1072   1.346       .  A
C1066      C1067   1.413       .  A
C1067      C1068   1.410   1_554  A
C1067      H1076   1.082       .  S
C1068      C1071   1.391       .  A
N1069      C1070   1.355       .  A
N1069      H1079   1.045       .  S
C1070      C1071   1.401       .  A
C1071      H1077   1.082   1_556  S
N1072      C1073   1.362       .  A
N1072      H1080   1.044       .  S
C1073      C1074   1.391   1_554  A
C1074      H1078   1.082       .  S
C1081      N1087   1.344       .  A
C1081      C1086   1.386       .  A
C1081      C1082   1.409       .  A
C1082      C1083   1.406       .  A
C1082      H1093   1.082   1_455  S
C1083      C1092   1.389       .  A
C1083      C1084   1.383       .  A
C1084      N1090   1.339       .  A
C1084      C1085   1.402       .  A
C1085      C1086   1.400       .  A
C1085      H1094   1.083       .  S
C1086      C1089   1.380       .  A
N1087      C1088   1.358       .  A
N1087      H1097   1.045   1_455  S
C1088      C1089   1.392       .  A
C1089      H1095   1.083       .  S
N1090      C1091   1.356       .  A
N1090      H1098   1.045       .  S
C1091      C1092   1.398       .  A
C1092      H1096   1.082       .  S
C1099      N1105   1.339       .  A
C1099      C1104   1.384       .  A
C1099      C1100   1.400       .  A
C1100      C1101   1.399       .  A
C1100      H1111   1.083       .  S
C1101      C1110   1.377       .  A
C1101      C1102   1.387       .  A
C1102      N1108   1.343   1_556  A
C1102      C1103   1.407       .  A
C1103      C1104   1.404       .  A
C1103      H1112   1.083   1_556  S
C1104      C1107   1.385       .  A
N1105      C1106   1.355       .  A
N1105      H1115   1.045       .  S
C1106      C1107   1.395       .  A
C1107      H1113   1.082   1_556  S
N1108      C1109   1.358   1_554  A
N1108      H1116   1.045       .  S
C1109      C1110   1.390       .  A
C1110      H1114   1.083       .  S
C1117      N1123   1.353       .  A
C1117      C1122   1.384       .  A
C1117      C1118   1.408       .  A
C1118      C1119   1.411       .  A
C1118      H1129   1.083       .  S
C1119      C1128   1.378       .  A
C1119      C1120   1.384       .  A
C1120      N1126   1.344       .  A
C1120      C1121   1.397       .  A
C1121      C1122   1.399       .  A
C1121      H1130   1.082       .  S
C1122      C1125   1.365       .  A
N1123      C1124   1.360       .  A
N1123      H1133   1.045       .  S
C1124      C1125   1.393       .  A
C1125      H1131   1.083       .  S
N1126      C1127   1.352       .  A
N1126      H1134   1.045       .  S
C1127      C1128   1.402       .  A
C1128      H1132   1.081   1_655  S
C1135      N1141   1.351       .  A
C1135      C1140   1.385       .  A
C1135      C1136   1.405       .  A
C1136      C1137   1.408       .  A
C1136      H1147   1.082       .  S
C1137      C1146   1.376       .  A
C1137      C1138   1.386       .  A
C1138      N1144   1.343       .  A
C1138      C1139   1.397       .  A
C1139      C1140   1.398       .  A
C1139      H1148   1.083       .  S
C1140      C1143   1.366       .  A
N1141      C1142   1.357       .  A
N1141      H1151   1.044       .  S
C1142      C1143   1.394       .  A
C1143      H1149   1.083       .  S
N1144      C1145   1.351       .  A
N1144      H1152   1.045       .  S
C1145      C1146   1.401       .  A
C1146      H1150   1.082       .  S
C1153      N1159   1.343       .  A
C1153      C1158   1.385       .  A
C1153      C1154   1.397       .  A
C1154      C1155   1.399       .  A
C1154      H1165   1.083       .  S
C1155      C1164   1.366       .  A
C1155      C1156   1.384       .  A
C1156      N1162   1.354       .  A
C1156      C1157   1.409       .  A
C1157      C1158   1.412       .  A
C1157      H1166   1.082   1_554  S
C1158      C1161   1.381       .  A
N1159      C1160   1.352       .  A
N1159      H1169   1.045       .  S
C1160      C1161   1.402       .  A
C1161      H1167   1.082   1_554  S
N1162      C1163   1.359       .  A
N1162      H1170   1.044       .  S
C1163      C1164   1.394       .  A
C1164      H1168   1.083       .  S
C1171      N1177   1.341       .  A
C1171      C1176   1.384   1_655  A
C1171      C1172   1.407       .  A
C1172      C1173   1.404   1_655  A
C1172      H1183   1.083       .  S
C1173      C1182   1.385       .  A
C1173      C1174   1.384       .  A
C1174      N1180   1.338       .  A
C1174      C1175   1.402       .  A
C1175      C1176   1.399       .  A
C1175      H1184   1.082       .  S
C1176      C1179   1.378       .  A
N1177      C1178   1.358       .  A
N1177      H1187   1.044       .  S
C1178      C1179   1.392   1_655  A
C1179      H1185   1.082       .  S
N1180      C1181   1.355       .  A
N1180      H1188   1.045       .  S
C1181      C1182   1.397       .  A
C1182      H1186   1.082   1_455  S
C1189      N1195   1.344       .  A
C1189      C1194   1.385       .  A
C1189      C1190   1.408       .  A
C1190      C1191   1.405       .  A
C1190      H1201   1.083       .  S
C1191      C1200   1.388       .  A
C1191      C1192   1.384       .  A
C1192      N1198   1.340       .  A
C1192      C1193   1.404       .  A
C1193      C1194   1.401       .  A
C1193      H1202   1.083       .  S
C1194      C1197   1.382       .  A
N1195      C1196   1.358       .  A
N1195      H1205   1.045       .  S
C1196      C1197   1.393       .  A
C1197      H1203   1.082       .  S
N1198      C1199   1.356       .  A
N1198      H1206   1.045       .  S
C1199      C1200   1.397       .  A
C1200      H1204   1.082       .  S
C1207      N1213   1.351       .  A
C1207      C1212   1.384       .  A
C1207      C1208   1.407       .  A
C1208      C1209   1.409       .  A
C1208      H1219   1.082       .  S
C1209      C1218   1.381       .  A
C1209      C1210   1.386       .  A
C1210      N1216   1.345       .  A
C1210      C1211   1.401       .  A
C1211      C1212   1.401       .  A
C1211      H1220   1.083       .  S
C1212      C1215   1.372       .  A
N1213      C1214   1.358       .  A
N1213      H1223   1.045       .  S
C1214      C1215   1.395       .  A
C1215      H1221   1.083       .  S
N1216      C1217   1.353       .  A
N1216      H1224   1.045       .  S
C1217      C1218   1.401       .  A
C1218      H1222   1.083       .  S
C1225      N1231   1.349       .  A
C1225      C1230   1.385       .  A
C1225      C1226   1.403       .  A
C1226      C1227   1.405       .  A
C1226      H1237   1.082       .  S
C1227      C1236   1.371       .  A
C1227      C1228   1.384       .  A
C1228      N1234   1.351       .  A
C1228      C1229   1.406       .  A
C1229      C1230   1.408       .  A
C1229      H1238   1.082       .  S
C1230      C1233   1.378       .  A
N1231      C1232   1.356       .  A
N1231      H1241   1.045       .  S
C1232      C1233   1.397       .  A
C1233      H1239   1.082       .  S
N1234      C1235   1.357       .  A
N1234      H1242   1.044       .  S
C1235      C1236   1.399       .  A
C1236      H1240   1.082       .  S
C1243      N1249   1.335       .  A
C1243      C1248   1.384       .  A
C1243      C1244   1.400       .  A
C1244      C1245   1.396       .  A
C1244      H1255   1.083       .  S
C1245      C1254   1.377       .  A
C1245      C1246   1.384       .  A
C1246      N1252   1.343       .  A
C1246      C1247   1.410       .  A
C1247      C1248   1.406       .  A
C1247      H1256   1.082       .  S
C1248      C1251   1.390       .  A
N1249      C1250   1.355       .  A
N1249      H1259   1.045       .  S
C1250      C1251   1.398       .  A
C1251      H1257   1.082       .  S
N1252      C1253   1.359       .  A
N1252      H1260   1.044   1_655  S
C1253      C1254   1.390       .  A
C1254      H1258   1.082       .  S
C1261      N1267   1.335       .  A
C1261      C1266   1.383       .  A
C1261      C1262   1.402       .  A
C1262      C1263   1.397       .  A
C1262      H1273   1.083       .  S
C1263      C1272   1.382       .  A
C1263      C1264   1.384       .  A
C1264      N1270   1.342       .  A
C1264      C1265   1.410       .  A
C1265      C1266   1.406       .  A
C1265      H1274   1.082   1_556  S
C1266      C1269   1.392       .  A
N1267      C1268   1.356       .  A
N1267      H1277   1.045       .  S
C1268      C1269   1.399       .  A
C1269      H1275   1.082       .  S
N1270      C1271   1.360       .  A
N1270      H1278   1.045   1_556  S
C1271      C1272   1.393       .  A
C1272      H1276   1.082       .  S
C1279      N1285   1.346       .  A
C1279      C1284   1.384   1_556  A
C1279      C1280   1.400       .  A
C1280      C1281   1.402       .  A
C1280      H1291   1.082       .  S
C1281      C1290   1.371       .  A
C1281      C1282   1.383       .  A
C1282      N1288   1.357       .  A
C1282      C1283   1.412   1_556  A
C1283      C1284   1.415       .  A
C1283      H1292   1.082       .  S
C1284      C1287   1.385       .  A
N1285      C1286   1.353   1_556  A
N1285      H1295   1.045       .  S
C1286      C1287   1.405       .  A
C1287      H1293   1.082       .  S
N1288      C1289   1.361       .  A
N1288      H1296   1.044   1_556  S
C1289      C1290   1.397       .  A
C1290      H1294   1.083       .  S
C1297      N1303   1.338       .  A
C1297      C1302   1.384       .  A
C1297      C1298   1.401       .  A
C1298      C1299   1.398       .  A
C1298      H1309   1.083       .  S
C1299      C1308   1.379       .  A
C1299      C1300   1.385       .  A
C1300      N1306   1.343   1_455  A
C1300      C1301   1.409       .  A
C1301      C1302   1.406       .  A
C1301      H1310   1.083   1_455  S
C1302      C1305   1.389       .  A
N1303      C1304   1.355       .  A
N1303      H1313   1.045       .  S
C1304      C1305   1.398       .  A
C1305      H1311   1.082       .  S
N1306      C1307   1.359   1_655  A
N1306      H1314   1.045       .  S
C1307      C1308   1.390       .  A
C1308      H1312   1.083       .  S
