geometry optimzed in LAMMPS
_audit_creation_date              2020-12-01 
_audit_creation_method            'lammps2cif' 
_symmetry_space_group_name_H-M    'P1' 
_symmetry_Int_Tables_number       1 
_symmetry_cell_setting            triclinic 
loop_ 
_symmetry_equiv_pos_as_xyz 
  x,y,z 
_cell_length_a                    51.25819538 
_cell_length_b                    51.47500482468487 
_cell_length_c                    49.72631790243366 
_cell_angle_alpha                 90.00751980697316 
_cell_angle_beta                  90.1070168350859 
_cell_angle_gamma                 120.4245022728636 
loop_ 
_atom_site_label 
_atom_site_type_symbol 
_atom_site_fract_x 
_atom_site_fract_y 
_atom_site_fract_z 
_atom_site_charge 
O1          O  0.27261180  0.36587736  0.43754748    -0.55500
C2          C  0.33702813  0.44811646  0.46910274     0.77200
O3          O  0.35131950  0.39428433  0.47866594    -0.56600
C4          C  0.27164776  0.34171150  0.43057324     0.77100
C5          C  0.34765107  0.42875193  0.38493405     0.79500
Cd6        Cd  0.32917570  0.39819920  0.43660958     1.37500
O7          O  0.35275593  0.45145556  0.44845468    -0.55500
O8          O  0.32157084  0.41906806  0.39476855    -0.54300
C9          C  0.36621617  0.38286920  0.46947076     0.79500
O10         O  0.36487859  0.42229501  0.39804746    -0.56700
O11         O  0.31584800  0.42151491  0.47408130    -0.55100
O12         O  0.29698580  0.34401569  0.42590983    -0.55100
O13         O  0.36466090  0.37848770  0.44425505    -0.54300
O14         O  0.40545563  0.13092206  0.56638172    -0.55500
C15         C  0.38997719  0.05432399  0.53632545     0.77200
O16         O  0.48312868  0.13725337  0.55960273    -0.56600
C17         C  0.42595417  0.15458356  0.57778167     0.77100
C18         C  0.41761417  0.07110411  0.62615265     0.79500
Cd19       Cd  0.43087341  0.10055214  0.57370467     1.37500
O20         O  0.40704583  0.08129033  0.52876488    -0.55500
O21         O  0.40125839  0.08001229  0.61520476    -0.54300
C22         C  0.48845733  0.11901161  0.54719540     0.79500
O23         O  0.44198961  0.07806805  0.61392319    -0.56700
O24         O  0.39009386  0.04968279  0.56124301    -0.55100
O25         O  0.44790662  0.15293333  0.58747272    -0.55100
O26         O  0.46855977  0.09147669  0.54961196    -0.54300
O27         O  0.39995682  0.26556599  0.60179630    -0.55500
C28         C  0.38087641  0.33175368  0.63308885     0.77200
O29         O  0.47607051  0.36345490  0.61665287    -0.56600
C30         C  0.42277263  0.26541647  0.59208440     0.77100
C31         C  0.41593560  0.34274047  0.55217116     0.79500
Cd32       Cd  0.42390004  0.32177279  0.60361364     1.37500
O33         O  0.38070836  0.30716400  0.63592190    -0.55500
O34         O  0.39827264  0.31608730  0.56016882    -0.54300
C35         C  0.47513847  0.35261676  0.63976962     0.79500
O36         O  0.43902183  0.35882485  0.56665338    -0.56700
O37         O  0.39974269  0.35013231  0.61646988    -0.55100
O38         O  0.44551350  0.29110467  0.58718622    -0.55100
O39         O  0.45117618  0.32836429  0.64553175    -0.54300
O40         O  0.27436478  0.40518679  0.72936069    -0.55500
C41         C  0.32976153  0.38275922  0.70318269     0.77200
O42         O  0.37555235  0.46546698  0.71770685    -0.56600
C43         C  0.26849330  0.41670924  0.74928371     0.77100
C44         C  0.35074863  0.41586830  0.79237838     0.79500
Cd45       Cd  0.32885491  0.42568020  0.74079705     1.37500
O46         O  0.33420923  0.38185684  0.72807417    -0.55500
O47         O  0.36785814  0.43716793  0.77668257    -0.54300
C48         C  0.36665912  0.48399398  0.71360110     0.79500
O49         O  0.32340536  0.40028178  0.78503882    -0.56700
O50         O  0.32205853  0.40149776  0.69607465    -0.55100
O51         O  0.29026724  0.43188098  0.76530468    -0.55100
O52         O  0.34175402  0.47722794  0.72457405    -0.54300
O53         O  0.13824874  0.40260291  0.78632792    -0.55500
C54         C  0.05790798  0.37853537  0.81331260     0.77200
O55         O  0.09198199  0.45458770  0.79802003    -0.56600
C56         C  0.15393897  0.41209947  0.76510152     0.77100
C57         C  0.06385990  0.40071285  0.72512662     0.79500
Cd58       Cd  0.10071252  0.41774572  0.77354263     1.37500
O59         O  0.08476173  0.39795358  0.81976401    -0.55500
O60         O  0.07216595  0.38419590  0.73665708    -0.54300
C61         C  0.11903195  0.47611077  0.79753290     0.79500
O62         O  0.07438945  0.42693823  0.73494416    -0.56700
O63         O  0.05242217  0.37475869  0.78840098    -0.55100
O64         O  0.14459470  0.42329295  0.74755752    -0.55100
O65         O  0.13693629  0.47190838  0.78317493    -0.54300
O66         O  0.37580339  0.27612395  0.90759605    -0.55500
C67         C  0.45617229  0.33806522  0.88315358     0.77200
O68         O  0.37934365  0.36187192  0.90331876    -0.56600
C69         C  0.35078645  0.27278547  0.91543057     0.77100
C70         C  0.43491710  0.34756208  0.96647591     0.79500
Cd71       Cd  0.40571073  0.33215076  0.91357811     1.37500
O72         O  0.42940663  0.31688722  0.87840902    -0.55500
O73         O  0.42345726  0.32152956  0.95632615    -0.54300
C74         C  0.39070246  0.36995785  0.88001700     0.79500
O75         O  0.43006759  0.36598732  0.95358260    -0.56700
O76         O  0.45931934  0.35547762  0.90241230    -0.55100
O77         O  0.35129420  0.29665221  0.92259101    -0.55100
O78         O  0.40934277  0.36192745  0.87342373    -0.54300
O79         O  0.09981392  0.22160199  0.10597352    -0.55500
C80         C  0.11023866  0.14816402  0.12991215     0.77200
O81         O  0.02344793  0.12449960  0.10700695    -0.56600
C82         C  0.08605525  0.22687235  0.08742270     0.77100
C83         C  0.09440011  0.15535206  0.04534540     0.79500
Cd84       Cd  0.07623111  0.16702502  0.09679201     1.37500
O85         O  0.11725451  0.17562475  0.12989532    -0.55500
O86         O  0.11194530  0.17593647  0.06138053    -0.54300
C87         C  0.02015364  0.13748107  0.12732978     0.79500
O88         O  0.06677983  0.14020930  0.05237409    -0.56700
O89         O  0.08845046  0.13088799  0.11481873    -0.55100
O90         O  0.06796867  0.20451002  0.07307869    -0.55100
O91         O  0.04133631  0.16410699  0.13173179    -0.54300
O92         O  0.23529193  0.09001390  0.23103781    -0.55500
C93         C  0.16311503  0.09726345  0.20013300     0.77200
O94         O  0.13968557  0.01258052  0.22856864    -0.56600
C95         C  0.24005773  0.07633927  0.24990852     0.77100
C96         C  0.16321624  0.08764796  0.28588130     0.79500
Cd97       Cd  0.18022485  0.06664423  0.23846215     1.37500
O98         O  0.19041388  0.10962955  0.20803728    -0.55500
O99         O  0.18104914  0.10454840  0.26782285    -0.54300
C100        C  0.15269919  0.01093028  0.20739971     0.79500
O101        O  0.15326462  0.05959331  0.28293389    -0.56700
O102        O  0.14496678  0.07166707  0.20989986    -0.55100
O103        O  0.21726568  0.05879801  0.26402961    -0.55100
O104        O  0.17840900  0.03358756  0.20255332    -0.54300
O105        O  0.36894785  0.08523380  0.28543905    -0.55500
C106        C  0.45247531  0.11191650  0.30446330     0.77200
O107        O  0.41487269  0.03446699  0.29378265    -0.56600
C108        C  0.35327975  0.07834746  0.26411490     0.77100
C109        C  0.43600303  0.08705912  0.21652639     0.79500
Cd110      Cd  0.40559345  0.07055500  0.26836127     1.37500
O111        O  0.42503132  0.09731820  0.31165388    -0.55500
O112        O  0.42981892  0.10388323  0.23029644    -0.54300
C113        C  0.38784740  0.01290657  0.29408069     0.79500
O114        O  0.42661868  0.06086800  0.22605360    -0.56700
O115        O  0.45761536  0.10949114  0.28004277    -0.55100
O116        O  0.36196265  0.06839578  0.24496789    -0.55100
O117        O  0.36963987  0.01631308  0.27932790    -0.54300
O118        O  0.13556313  0.22571609  0.40851889    -0.55500
C119        C  0.05323927  0.15911769  0.37408471     0.77200
O120        O  0.12449929  0.16368087  0.36480321    -0.56600
C121        C  0.15926134  0.22697653  0.41773915     0.77100
C122        C  0.07398032  0.15388638  0.45871847     0.79500
Cd123      Cd  0.10431081  0.16982909  0.40679987     1.37500
O124        O  0.07783374  0.18416666  0.37278796    -0.55500
O125        O  0.07895853  0.17672010  0.44514039    -0.54300
C126        C  0.12528174  0.14011363  0.37027693     0.79500
O127        O  0.08443056  0.13817501  0.44890417    -0.56700
O128        O  0.05253027  0.14011142  0.39061024    -0.55100
O129        O  0.15732896  0.20185816  0.42241950    -0.55100
O130        O  0.11634584  0.12939608  0.39371384    -0.54300
O131        O  0.10238258  0.35864668  0.05264398    -0.55500
C132        C  0.13015165  0.44195755  0.03228896     0.77200
O133        O  0.05315260  0.40690921  0.04482908    -0.56600
C134        C  0.09330625  0.34219599  0.07341775     0.77100
C135        C  0.10490535  0.42855923  0.12076707     0.79500
Cd136      Cd  0.08872478  0.39635392  0.06950678     1.37500
O137        O  0.13389458  0.44521371  0.05745257    -0.55500
O138        O  0.12178759  0.42135376  0.10827836    -0.54300
C139        C  0.02999563  0.38096126  0.04652063     0.79500
O140        O  0.07909367  0.41947997  0.11027075    -0.56700
O141        O  0.10945787  0.41629753  0.02443043    -0.55100
O142        O  0.08276805  0.35095839  0.09199205    -0.55100
O143        O  0.03291849  0.36252327  0.06125660    -0.54300
O144        O  0.23788501  0.13401043  0.93457248    -0.55500
C145        C  0.16260695  0.04651281  0.96133262     0.77200
O146        O  0.13881215  0.10942505  0.93907766    -0.56600
C147        C  0.23923471  0.15649236  0.92262049     0.77100
C148        C  0.16711574  0.07325118  0.87677155     0.79500
Cd149      Cd  0.18166067  0.10066660  0.92957374     1.37500
O150        O  0.19066171  0.06592413  0.95982495    -0.55500
O151        O  0.18991909  0.07732970  0.89015730    -0.54300
C152        C  0.14975856  0.12269980  0.96127727     0.79500
O153        O  0.15193055  0.08406046  0.88690378    -0.56700
O154        O  0.14528074  0.05271625  0.94839753    -0.55100
O155        O  0.21441345  0.15267057  0.91353489    -0.55100
O156        O  0.17528540  0.12641140  0.96789761    -0.54300
C157        C  0.11804209  0.99956635  0.97943872     0.25900
C158        C  0.14975949  0.01817150  0.97742806    -0.22200
C159        C  0.17831874  0.52190964  0.00635355     0.20800
C160        C  0.16836612  0.49648852  0.02285977     0.25900
C161        C  0.14685689  0.46753414  0.01332956    -0.22100
C162        C  0.13792224  0.46437188  0.98616530     0.20800
F163        F  0.11825574  0.43689112  0.97565846    -0.12100
F164        F  0.09905451  0.00637757  0.96622653    -0.14400
F165        F  0.17848524  0.50052899  0.04863752    -0.14400
F166        F  0.19875336  0.02638690  0.98971271    -0.12100
C167        C  0.00550602  0.14936594  0.31248489     0.25900
C168        C  0.47749206  0.12887394  0.32381803    -0.22200
C169        C  0.47346168  0.12060243  0.35112394     0.20800
C170        C  0.99744737  0.13132785  0.36634987     0.25900
C171        C  0.02672923  0.15147609  0.35685270    -0.22100
C172        C  0.03040427  0.16135451  0.33002474     0.20800
F173        F  0.05836761  0.18082036  0.32023060    -0.12100
F174        F  0.01006028  0.15800635  0.28629644    -0.14400
F175        F  0.99303635  0.12180425  0.39228913    -0.14400
F176        F  0.44586683  0.09969082  0.36063645    -0.12100
C177        C  0.13895646  0.08378294  0.33143029     0.25900
C178        C  0.15435293  0.10070741  0.30849963    -0.22200
C179        C  0.16093055  0.13079162  0.30685520     0.20800
C180        C  0.15190285  0.14335864  0.32707862     0.25900
C181        C  0.13605520  0.12642382  0.34982868    -0.22100
C182        C  0.12995859  0.09652884  0.35191137     0.20800
F183        F  0.11462819  0.07933520  0.37339935    -0.12100
F184        F  0.13260703  0.05491919  0.33410173    -0.14400
F185        F  0.15879431  0.17239723  0.32416237    -0.14400
F186        F  0.17566122  0.14823905  0.28526759    -0.12100
C187        C  0.31886100  0.08940439  0.23693033     0.25900
C188        C  0.32590864  0.08104734  0.26160024    -0.22200
C189        C  0.30561248  0.07346475  0.28317473     0.20800
C190        C  0.27795297  0.07250407  0.27963372     0.25900
C191        C  0.27038644  0.07985546  0.25460517    -0.22100
C192        C  0.29158935  0.08913326  0.23353859     0.20800
F193        F  0.28544064  0.09673991  0.20918300    -0.12100
F194        F  0.33843210  0.09780899  0.21597553    -0.14400
F195        F  0.25847741  0.06408999  0.30066084    -0.14400
F196        F  0.31185793  0.06552565  0.30733302    -0.12100
C197        C  0.14668436  0.46277854  0.15240392     0.25900
C198        C  0.11569471  0.44768587  0.14552790    -0.22200
C199        C  0.09599437  0.45271212  0.16159893     0.20800
C200        C  0.10725212  0.47321766  0.18323286     0.25900
C201        C  0.13846707  0.48948800  0.18892879    -0.22100
C202        C  0.15788076  0.48355201  0.17358087     0.20800
F203        F  0.18754568  0.99870272  0.17042930    -0.12100
F204        F  0.16665927  0.45854692  0.13790616    -0.14400
F205        F  0.08786899  0.47851064  0.19751309    -0.14400
F206        F  0.06593234  0.43838255  0.15602365    -0.12100
C207        C  0.13716213  0.16820961  0.01355463     0.25900
C208        C  0.10656096  0.14895814  0.02059106    -0.22200
C209        C  0.08922236  0.12249957  0.00532733     0.20800
C210        C  0.10274331  0.11471937  0.98467139     0.25900
C211        C  0.13382375  0.13302974  0.97921842    -0.22100
C212        C  0.15061153  0.16015788  0.99336033     0.20800
F213        F  0.18045553  0.17870516  0.98801080    -0.12100
F214        F  0.15465481  0.19450954  0.02687678    -0.14400
F215        F  0.08598414  0.08825181  0.97137265    -0.14400
F216        F  0.05967790  0.10332013  0.01127153    -0.12100
C217        C  0.08837062  0.29466770  0.05400471     0.25900
C218        C  0.09435162  0.31400357  0.07610114    -0.22200
C219        C  0.09942647  0.30523871  0.10145509     0.20800
C220        C  0.09779950  0.27745032  0.10487055     0.25900
C221        C  0.09032419  0.25739031  0.08311937    -0.22100
C222        C  0.08591935  0.26643092  0.05755545     0.20800
F223        F  0.07915286  0.24790951  0.03597703    -0.12100
F224        F  0.08352266  0.30247066  0.02920547    -0.14400
F225        F  0.10225646  0.26965933  0.12981041    -0.14400
F226        F  0.10593450  0.32364734  0.12307702    -0.12100
C227        C  0.15099065  0.15498241  0.16299995     0.25900
C228        C  0.12579788  0.13611128  0.14672706    -0.22200
C229        C  0.11476088  0.10482275  0.14703461     0.20800
C230        C  0.12770065  0.09267600  0.16376601     0.25900
C231        C  0.15216497  0.11131299  0.18060497    -0.22100
C232        C  0.16414134  0.14266600  0.17972399     0.20800
F233        F  0.18763012  0.16124146  0.19592273    -0.12100
F234        F  0.16260216  0.18524728  0.16313729    -0.14400
F235        F  0.11607714  0.06237787  0.16351260    -0.14400
F236        F  0.09086620  0.08554445  0.13153300    -0.12100
C237        C  0.46710365  0.12899793  0.18412740     0.25900
C238        C  0.45436544  0.09843255  0.19139749    -0.22200
C239        C  0.46114381  0.07998419  0.17540509     0.20800
C240        C  0.48133719  0.09218223  0.15363348     0.25900
C241        C  0.49530511  0.12312857  0.14747472    -0.22100
C242        C  0.48719372  0.14108288  0.16255606     0.20800
F243        F  0.99833033  0.16994392  0.15665565    -0.12100
F244        F  0.46126208  0.14785221  0.19859244    -0.14400
F245        F  0.48851484  0.07403232  0.13962620    -0.14400
F246        F  0.44908768  0.05033794  0.18131759    -0.12100
C247        C  0.47594924  0.38680179  0.99612745     0.25900
C248        C  0.45483460  0.35630141  0.99080132    -0.22200
C249        C  0.45587021  0.33419393  0.00680022     0.20800
C250        C  0.47851514  0.34227245  0.02637134     0.25900
C251        C  0.50102404  0.37267750  0.03028288    -0.22100
C252        C  0.49877560  0.39487396  0.01548771     0.20800
F253        F  0.01968226  0.42416485  0.01951966    -0.12100
F254        F  0.47596457  0.40893207  0.98127018    -0.14400
F255        F  0.47928739  0.32003917  0.04039530    -0.14400
F256        F  0.43569083  0.30450008  0.00279217    -0.12100
C257        C  0.32327759  0.21588212  0.91832606     0.25900
C258        C  0.32243094  0.24277025  0.91623709    -0.22200
C259        C  0.29402408  0.24078544  0.91521145     0.20800
C260        C  0.26720806  0.21280538  0.91673836     0.25900
C261        C  0.26798204  0.18597261  0.91978292    -0.22100
C262        C  0.29637530  0.18784918  0.92037668     0.20800
F263        F  0.29814700  0.16250005  0.92256957    -0.12100
F264        F  0.35016436  0.21670058  0.91898105    -0.14400
F265        F  0.24040672  0.21215765  0.91588737    -0.14400
F266        F  0.29209330  0.26599589  0.91235566    -0.12100
C267        C  0.47782434  0.33208490  0.83999289     0.25900
C268        C  0.48231631  0.34338934  0.86639385    -0.22200
C269        C  0.01292355  0.36594007  0.87696554     0.20800
C270        C  0.03770422  0.37465566  0.85995628     0.25900
C271        C  0.03341156  0.36341016  0.83349128    -0.22100
C272        C  0.00405749  0.34127133  0.82532797     0.20800
F273        F  0.99891340  0.32931874  0.80020198    -0.12100
F274        F  0.44946795  0.31379736  0.83027896    -0.14400
F275        F  0.06560392  0.39570228  0.86888202    -0.14400
F276        F  0.01783280  0.37850604  0.90183778    -0.12100
C277        C  0.16834906  0.02614209  0.81892776     0.25900
C278        C  0.13755536  0.00944664  0.81164583    -0.21000
C279        C  0.11753029  0.01767332  0.82292912     0.20800
C280        C  0.12761234  0.04022836  0.84272514     0.25900
C281        C  0.15787308  0.05492121  0.85170043    -0.22100
C282        C  0.17836472  0.04858007  0.83864597     0.20800
F283        F  0.20803897  0.06320535  0.84577497    -0.12100
F284        F  0.18872640  0.01982889  0.80789506    -0.14400
F285        F  0.10717432  0.04597354  0.85450326    -0.14400
F286        F  0.08769623  0.00241744  0.81638150    -0.12100
C287        C  0.35286102  0.38277977  0.86066043     0.25900
C288        C  0.38203707  0.38646411  0.86055134    -0.22200
C289        C  0.40182260  0.40315289  0.83945041     0.20800
C290        C  0.39213929  0.41416389  0.81818070     0.25900
C291        C  0.36223623  0.40843727  0.81715520    -0.22100
C292        C  0.34291517  0.39323276  0.83900303     0.20800
F293        F  0.31410996  0.38786298  0.83914540    -0.12100
F294        F  0.33329607  0.36749683  0.88090544    -0.14400
F295        F  0.41155764  0.42872118  0.79764905    -0.14400
F296        F  0.43048824  0.40813516  0.83895320    -0.12100
C297        C  0.22889268  0.41640181  0.77936452     0.25900
C298        C  0.23810605  0.41323787  0.75348543    -0.22200
C299        C  0.21850464  0.40802011  0.73161172     0.20800
C300        C  0.19101852  0.40732775  0.73539841     0.25900
C301        C  0.18211295  0.41099629  0.76122152    -0.22100
C302        C  0.20113039  0.41504313  0.78320583     0.20800
F303        F  0.19349585  0.41905799  0.80835464    -0.12100
F304        F  0.24678985  0.42084644  0.80107625    -0.14400
F305        F  0.17305261  0.40299610  0.71375861    -0.14400
F306        F  0.22636436  0.40463265  0.70635158    -0.12100
C307        C  0.35054796  0.32732881  0.67445527     0.25900
C308        C  0.36152303  0.33993201  0.64894086    -0.22200
C309        C  0.35701223  0.36334363  0.63995865     0.20800
C310        C  0.34419138  0.37554501  0.65688944     0.25900
C311        C  0.33592126  0.36491199  0.68337674    -0.22100
C312        C  0.33799494  0.33980704  0.69156538     0.20800
F313        F  0.32906898  0.32812285  0.71658650    -0.12100
F314        F  0.35395548  0.30439753  0.68366670    -0.14400
F315        F  0.34217821  0.39940386  0.64795167    -0.14400
F316        F  0.36635638  0.37552798  0.61512741    -0.12100
C317        C  0.01450579  0.39596069  0.66525037     0.25900
C318        C  0.99769384  0.36462374  0.66087420    -0.22200
C319        C  0.00370083  0.34579972  0.67687615     0.20800
C320        C  0.02556911  0.35771911  0.69712114     0.25900
C321        C  0.04207498  0.38898897  0.70217814    -0.22100
C322        C  0.03632504  0.40804300  0.68592925     0.20800
F323        F  0.05145444  0.43825012  0.69023773    -0.12100
F324        F  0.00886942  0.41471567  0.65039076    -0.14400
F325        F  0.02969424  0.33822605  0.71240341    -0.14400
F326        F  0.98821878  0.31551532  0.67291779    -0.12100
C327        C  0.40879611  0.01392458  0.67936572     0.25900
C328        C  0.38152851  0.00752444  0.69197354    -0.22200
C329        C  0.36854135  0.02504690  0.68492370     0.20800
C330        C  0.38125125  0.04684475  0.66463833     0.25900
C331        C  0.40746511  0.05197054  0.65085534    -0.22100
C332        C  0.42166166  0.03594560  0.65916006     0.20800
F333        F  0.44715363  0.04033547  0.64675965    -0.12100
F334        F  0.42249860  0.99803134  0.68571705    -0.14400
F335        F  0.36701327  0.06210904  0.65784053    -0.14400
F336        F  0.34625140  0.52564207  0.70180179    -0.12100
C337        C  0.02231849  0.10871226  0.51703544     0.25900
C338        C  0.01401566  0.12905587  0.52734895    -0.22200
C339        C  0.02843673  0.15852637  0.51684869     0.20800
C340        C  0.04888146  0.16679038  0.49552124     0.25900
C341        C  0.05581749  0.14596224  0.48402349    -0.22100
C342        C  0.04302399  0.11708731  0.49565653     0.20800
F343        F  0.04924015  0.09634588  0.48548386    -0.12100
F344        F  0.51045129  0.08079577  0.52763807    -0.14400
F345        F  0.06103761  0.19512639  0.48551135    -0.14400
F346        F  0.02154445  0.17915133  0.52611037    -0.12100
C347        C  0.39701419  0.18188021  0.58352221     0.25900
C348        C  0.42467226  0.18278656  0.57988711    -0.22200
C349        C  0.45148361  0.21104205  0.57916687     0.20800
C350        C  0.45076379  0.23773977  0.58250547     0.25900
C351        C  0.42319136  0.23692789  0.58710699    -0.22100
C352        C  0.39628936  0.20857450  0.58742944     0.20800
F353        F  0.36916461  0.20655536  0.59160968    -0.12100
F354        F  0.37069626  0.15503723  0.58425563    -0.14400
F355        F  0.47731268  0.26437875  0.58180069    -0.14400
F356        F  0.47853451  0.21289239  0.57485150    -0.12100
C357        C  0.33624824  0.44976239  0.34377012     0.25900
C358        C  0.35762091  0.44787422  0.36025262    -0.22200
C359        C  0.38857194  0.46666242  0.35433466     0.20800
C360        C  0.39787111  0.48775381  0.33332375     0.25900
C361        C  0.37644683  0.49059582  0.31762949    -0.22100
C362        C  0.34549821  0.47073877  0.32277312     0.20800
F363        F  0.32540777  0.97007255  0.30430893    -0.12100
F364        F  0.30616244  0.43188256  0.34844248    -0.14400
F365        F  0.42798084  0.50625342  0.32918283    -0.14400
F366        F  0.41003749  0.46595317  0.36984475    -0.12100
C367        C  0.34300947  0.46983868  0.51516859     0.25900
C368        C  0.34473236  0.47387184  0.48715504    -0.22200
C369        C  0.35798270  0.50326877  0.47673648     0.20800
C370        C  0.37917197  0.03290814  0.48946318     0.25900
C371        C  0.37251137  0.02909862  0.51714267    -0.22100
C372        C  0.35172255  0.99997857  0.52667575     0.20800
F373        F  0.34404805  0.99526960  0.55308829    -0.12100
F374        F  0.33095208  0.44182187  0.52588065    -0.14400
F375        F  0.39867164  0.06054709  0.47924210    -0.14400
F376        F  0.35956789  0.50784497  0.44974791    -0.12100
C377        C  0.39799301  0.39289896  0.51050991     0.25900
C378        C  0.38371216  0.37475711  0.48786948    -0.22200
C379        C  0.38335216  0.34739085  0.48497801     0.20800
C380        C  0.39522687  0.33742470  0.50534395     0.25900
C381        C  0.40839756  0.35508156  0.52847520    -0.22100
C382        C  0.41048392  0.38331411  0.53046211     0.20800
F383        F  0.42239197  0.40057940  0.55280775    -0.12100
F384        F  0.39893461  0.41956225  0.51378100    -0.14400
F385        F  0.39307376  0.31014045  0.50286792    -0.14400
F386        F  0.36955831  0.32929984  0.46345409    -0.12100
C387        C  0.21593867  0.25747192  0.42296641     0.25900
C388        C  0.18783216  0.25618362  0.42226608    -0.22200
C389        C  0.18746062  0.28322428  0.42515090     0.20800
C390        C  0.21450357  0.31088495  0.42821439     0.25900
C391        C  0.24270078  0.31230088  0.42807743    -0.22100
C392        C  0.24298455  0.28513561  0.42558263     0.20800
F393        F  0.26949394  0.28516996  0.42575508    -0.12100
F394        F  0.21744055  0.23199223  0.42043957    -0.14400
F395        F  0.21297980  0.33632247  0.43093528    -0.14400
F396        F  0.16082873  0.28293120  0.42531514    -0.12100
O397        O  0.27570232  0.86810036  0.43939585    -0.55500
C398        C  0.34067302  0.95197025  0.46512867     0.77200
O399        O  0.35571188  0.89904858  0.47733445    -0.56600
C400        C  0.27379766  0.84420452  0.43025433     0.77100
C401        C  0.34944876  0.92792442  0.38200057     0.79500
Cd402      Cd  0.33210126  0.90013987  0.43497743     1.37500
O403        O  0.35708781  0.95399563  0.44535496    -0.55500
O404        O  0.32396791  0.91975555  0.39249741    -0.54300
C405        C  0.36846822  0.88492224  0.46949105     0.79500
O406        O  0.36659457  0.92146026  0.39525055    -0.56700
O407        O  0.31869034  0.92580543  0.47022340    -0.55100
O408        O  0.29852423  0.84646782  0.42306171    -0.55100
O409        O  0.36540417  0.87798680  0.44473285    -0.54300
O410        O  0.40172402  0.62804146  0.56889084    -0.55500
C411        C  0.38883435  0.55044333  0.53999231     0.77200
O412        O  0.48583963  0.63319352  0.56432694    -0.56600
C413        C  0.42366257  0.65334549  0.57621737     0.77100
C414        C  0.41756098  0.57184265  0.62729046     0.79500
Cd415      Cd  0.42999097  0.60010448  0.57386794     1.37500
O416        O  0.39699300  0.57736171  0.53353000    -0.55500
O417        O  0.40102357  0.58051764  0.61629671    -0.54300
C418        C  0.48578329  0.61870905  0.54370341     0.79500
O419        O  0.44160285  0.57839045  0.61463701    -0.56700
O420        O  0.39829008  0.54697240  0.56242776    -0.55100
O421        O  0.44786416  0.65376477  0.58217872    -0.55100
O422        O  0.46109529  0.59496165  0.53859379    -0.54300
O423        O  0.39592452  0.76254956  0.60307133    -0.55500
C424        C  0.37379069  0.82469447  0.63293656     0.77200
O425        O  0.47357966  0.85717485  0.61951981    -0.56600
C426        C  0.41867809  0.76269008  0.59289755     0.77100
C427        C  0.41426018  0.84298813  0.55485370     0.79500
Cd428      Cd  0.42005783  0.81865458  0.60551115     1.37500
O429        O  0.37795844  0.80312140  0.63899309    -0.55500
O430        O  0.39940742  0.81501667  0.55984392    -0.54300
C431        C  0.46908479  0.85017970  0.64424386     0.79500
O432        O  0.43390469  0.85946248  0.57222298    -0.56700
O433        O  0.38912920  0.84092589  0.61348890    -0.55100
O434        O  0.44138833  0.78847352  0.58834065    -0.55100
O435        O  0.44283723  0.82912482  0.65010171    -0.54300
O436        O  0.27228862  0.90151829  0.72821068    -0.55500
C437        C  0.32622592  0.87919524  0.70214054     0.77200
O438        O  0.37362173  0.96210629  0.71386439    -0.56600
C439        C  0.26746512  0.91594697  0.74626385     0.77100
C440        C  0.35078161  0.91581415  0.78917116     0.79500
Cd441      Cd  0.32728205  0.92384712  0.73825861     1.37500
O442        O  0.33039228  0.87854171  0.72712084    -0.55500
O443        O  0.36777369  0.93569195  0.77234892    -0.54300
C444        C  0.36495248  0.98084593  0.71002689     0.79500
O445        O  0.32288194  0.90147054  0.78348688    -0.56700
O446        O  0.31993667  0.89876733  0.69436881    -0.55100
O447        O  0.29001496  0.93355720  0.76065532    -0.55100
O448        O  0.34033646  0.97451382  0.72130891    -0.54300
O449        O  0.13997299  0.90627203  0.78492604    -0.55500
C450        C  0.06039288  0.88442772  0.81430939     0.77200
O451        O  0.09969276  0.96717077  0.78559616    -0.56600
C452        C  0.15352513  0.91253893  0.76253485     0.77100
C453        C  0.06001615  0.90376877  0.72795886     0.79500
Cd454      Cd  0.10222991  0.92119976  0.77291455     1.37500
O455        O  0.07797962  0.91245500  0.81718352    -0.55500
O456        O  0.05753590  0.88674626  0.74724328    -0.54300
C457        C  0.12606240  0.98124358  0.79561357     0.79500
O458        O  0.08333488  0.92996452  0.72841811    -0.56700
O459        O  0.06455602  0.87262592  0.79366104    -0.55100
O460        O  0.14241628  0.92126181  0.74430914    -0.55100
O461        O  0.14171239  0.96878758  0.79271485    -0.54300
O462        O  0.36889870  0.76934161  0.90062183    -0.55500
C463        C  0.45471211  0.83576261  0.87999739     0.77200
O464        O  0.38022356  0.86017712  0.89792310    -0.56600
C465        C  0.34419192  0.76686907  0.90839160     0.77100
C466        C  0.42730633  0.83708488  0.96093747     0.79500
Cd467      Cd  0.40058484  0.82526262  0.90715975     1.37500
O468        O  0.42936464  0.81258357  0.87452684    -0.55500
O469        O  0.41642910  0.81199515  0.94904742    -0.54300
C470        C  0.38766629  0.86383028  0.87325545     0.79500
O471        O  0.42287575  0.85648184  0.94928486    -0.56700
O472        O  0.45457908  0.85280580  0.89823191    -0.55100
O473        O  0.34561284  0.79125726  0.91523333    -0.55100
O474        O  0.40090778  0.85026168  0.86507363    -0.54300
O475        O  0.08758606  0.71869622  0.11255464    -0.55500
C476        C  0.10295798  0.65143498  0.13931938     0.77200
O477        O  0.02047779  0.61906356  0.10936166    -0.56600
C478        C  0.07775389  0.72504360  0.09160427     0.77100
C479        C  0.08894988  0.65003954  0.05019933     0.79500
Cd480      Cd  0.07023261  0.66552906  0.09979255     1.37500
O481        O  0.11562111  0.67736711  0.12863769    -0.55500
O482        O  0.10704614  0.66929788  0.06688666    -0.54300
C483        C  0.01146434  0.63213203  0.12527481     0.79500
O484        O  0.06102294  0.63785311  0.05581450    -0.56700
O485        O  0.07609191  0.63350243  0.13206188    -0.55100
O486        O  0.06496713  0.70412611  0.07435921    -0.55100
O487        O  0.02787662  0.66048715  0.12678669    -0.54300
O488        O  0.23374001  0.59284108  0.23325380    -0.55500
C489        C  0.15774327  0.60194896  0.20907411     0.77200
O490        O  0.13890440  0.51529668  0.23015867    -0.56600
C491        C  0.23826317  0.57759799  0.25079544     0.77100
C492        C  0.16510405  0.58793620  0.29224326     0.79500
Cd493      Cd  0.17847271  0.56916973  0.24144587     1.37500
O494        O  0.18586703  0.61111996  0.21048318    -0.55500
O495        O  0.18607246  0.60511098  0.27636621    -0.54300
C496        C  0.15159111  0.51511938  0.20825344     0.79500
O497        O  0.15074482  0.56014074  0.28585810    -0.56700
O498        O  0.14059273  0.57840701  0.22227931    -0.55100
O499        O  0.21532763  0.55902343  0.26427709    -0.55100
O500        O  0.17637149  0.53875242  0.20300000    -0.54300
O501        O  0.36778704  0.58714336  0.28559995    -0.55500
C502        C  0.45453025  0.61663361  0.30013216     0.77200
O503        O  0.41341378  0.53682849  0.29611185    -0.56600
C504        C  0.35193640  0.57998661  0.26434336     0.77100
C505        C  0.42882008  0.58161469  0.21434177     0.79500
Cd506      Cd  0.40418480  0.57199355  0.26856041     1.37500
O507        O  0.42747546  0.60824490  0.30649410    -0.55500
O508        O  0.42400486  0.60028103  0.22667080    -0.54300
C509        C  0.38613406  0.51619326  0.29838235     0.79500
O510        O  0.42092653  0.55709535  0.22663437    -0.56700
O511        O  0.45803721  0.60634632  0.27824760    -0.55100
O512        O  0.36050114  0.56983237  0.24526424    -0.55100
O513        O  0.36749022  0.51974816  0.28446172    -0.54300
O514        O  0.13604904  0.72956808  0.41009888    -0.55500
C515        C  0.05500227  0.66506516  0.37346308     0.77200
O516        O  0.12946327  0.66664128  0.36913530    -0.56600
C517        C  0.15995254  0.73061018  0.41845938     0.77100
C518        C  0.07517543  0.65758718  0.46075143     0.79500
Cd519      Cd  0.10460962  0.67342873  0.40799534     1.37500
O520        O  0.08105151  0.68812869  0.37079690    -0.55500
O521        O  0.08213096  0.68176894  0.44846192    -0.54300
C522        C  0.12646414  0.64136151  0.37486465     0.79500
O523        O  0.08347694  0.64082326  0.44942986    -0.56700
O524        O  0.05220266  0.64712921  0.39205441    -0.55100
O525        O  0.15791690  0.70537723  0.42269358    -0.55100
O526        O  0.11293429  0.62974567  0.39682853    -0.54300
O527        O  0.09338876  0.85606685  0.05570039    -0.55500
C528        C  0.10890788  0.94047433  0.02965436     0.77200
O529        O  0.02707334  0.88931168  0.05995633    -0.56600
C530        C  0.08206773  0.83924240  0.07614117     0.77100
C531        C  0.09920854  0.92562608  0.11921689     0.79500
Cd532      Cd  0.07699246  0.89259270  0.06852563     1.37500
O533        O  0.11997170  0.92425629  0.03651091    -0.55500
O534        O  0.11609152  0.92579909  0.10061352    -0.54300
C535        C  0.01801805  0.86829930  0.04271739     0.79500
O536        O  0.07095552  0.90940361  0.11485110    -0.56700
O537        O  0.08419181  0.93417137  0.04059011    -0.55100
O538        O  0.06920344  0.84748070  0.09304036    -0.55100
O539        O  0.03457150  0.85681943  0.03972356    -0.54300
O540        O  0.23271238  0.62897156  0.93086423    -0.55500
C541        C  0.17173309  0.54547056  0.96436953     0.77200
O542        O  0.13015656  0.59657667  0.94733626    -0.56600
C543        C  0.23238382  0.65162750  0.92121633     0.77100
C544        C  0.15917134  0.56690934  0.88041092     0.79500
Cd545      Cd  0.17676009  0.59542505  0.93292867     1.37500
O546        O  0.19459879  0.57160924  0.96727440    -0.55500
O547        O  0.18461020  0.57509070  0.89107381    -0.54300
C548        C  0.14309836  0.61433280  0.96691740     0.79500
O549        O  0.14233442  0.57421476  0.89304643    -0.56700
O550        O  0.15232820  0.54312384  0.94741620    -0.55100
O551        O  0.20645876  0.64803748  0.91640247    -0.55100
O552        O  0.17081860  0.62317562  0.97016440    -0.54300
C553        C  0.14755225  0.48972760  0.96987912     0.25900
C554        C  0.16676608  0.51886695  0.98013782    -0.22200
C555        C  0.16815815  0.00946133  0.99130461     0.20800
C556        C  0.15506703  0.98336967  0.00743452     0.25900
C557        C  0.12342513  0.96576953  0.01020180    -0.22100
C558        C  0.10516919  0.97393587  0.99560421     0.20800
F559        F  0.07451192  0.95713061  0.99708178    -0.12100
F560        F  0.13701933  0.48575840  0.94423676    -0.14400
F561        F  0.17334366  0.97613477  0.02129018    -0.14400
F562        F  0.19744319  0.54961096  0.01673965    -0.12100
C563        C  0.00834137  0.65150260  0.31024161     0.25900
C564        C  0.48059690  0.63541103  0.31806287    -0.22200
C565        C  0.47620413  0.63570492  0.34598138     0.20800
C566        C  0.99948611  0.64183553  0.36564514     0.25900
C567        C  0.02912057  0.65817181  0.35553683    -0.22100
C568        C  0.03329298  0.66419068  0.32779236     0.20800
F569        F  0.06158423  0.68044343  0.31740720    -0.12100
F570        F  0.01330053  0.65622091  0.28339790    -0.14400
F571        F  0.99463207  0.63674386  0.39246010    -0.14400
F572        F  0.44789464  0.62246171  0.35646652    -0.12100
C573        C  0.13525600  0.58244591  0.33502452     0.25900
C574        C  0.15729970  0.60073850  0.31588944    -0.22200
C575        C  0.17066974  0.63227405  0.31823359     0.20800
C576        C  0.16121886  0.64504135  0.33791634     0.25900
C577        C  0.13826684  0.62689937  0.35626533    -0.22100
C578        C  0.12596484  0.59542626  0.35512171     0.20800
F579        F  0.10399453  0.57711360  0.37261512    -0.12100
F580        F  0.12219315  0.55201433  0.33398834    -0.14400
F581        F  0.17446386  0.67552102  0.33864841    -0.14400
F582        F  0.19229836  0.65117092  0.30073182    -0.12100
C583        C  0.31711411  0.59065057  0.23718559     0.25900
C584        C  0.32439875  0.58246436  0.26185227    -0.22200
C585        C  0.30405657  0.57459009  0.28341819     0.20800
C586        C  0.27625854  0.57336107  0.27994795     0.25900
C587        C  0.26854839  0.58077209  0.25502283    -0.22100
C588        C  0.28963781  0.59007240  0.23385722     0.20800
F589        F  0.28316387  0.59737222  0.20950125    -0.12100
F590        F  0.33667895  0.59923179  0.21621002    -0.14400
F591        F  0.25679824  0.56472813  0.30099720    -0.14400
F592        F  0.31042232  0.56666488  0.30752725    -0.12100
C593        C  0.14405082  0.96177890  0.14727232     0.25900
C594        C  0.11236599  0.94421620  0.14412510    -0.22200
C595        C  0.09399620  0.94594597  0.16434673     0.20800
C596        C  0.10699239  0.96613733  0.18609221     0.25900
C597        C  0.13862757  0.98515327  0.18803400    -0.22100
C598        C  0.15690832  0.98184227  0.16882810     0.20800
F599        F  0.18806574  0.49841735  0.17875076    -0.12100
F600        F  0.16296053  0.96038396  0.12899780    -0.14400
F601        F  0.08849451  0.96816393  0.20440051    -0.14400
F602        F  0.06340106  0.92890496  0.16266639    -0.12100
C603        C  0.13015685  0.66197110  0.01699418     0.25900
C604        C  0.10058651  0.64200510  0.02610813    -0.22200
C605        C  0.08383367  0.61363060  0.01355631     0.20800
C606        C  0.09705833  0.60489739  0.99336398     0.25900
C607        C  0.12724414  0.62436428  0.98546000    -0.22100
C608        C  0.14333178  0.65319526  0.99708603     0.20800
F609        F  0.17215923  0.67292976  0.98937258    -0.12100
F610        F  0.14669850  0.69001684  0.02769303    -0.14400
F611        F  0.08102735  0.57671844  0.98286198    -0.14400
F612        F  0.05534131  0.59365717  0.02188628    -0.12100
C613        C  0.08248249  0.79381628  0.05778049     0.25900
C614        C  0.08307070  0.81105837  0.08000238    -0.22200
C615        C  0.08301427  0.80027236  0.10605084     0.20800
C616        C  0.08206685  0.77278085  0.10980270     0.25900
C617        C  0.08057861  0.75508139  0.08759466    -0.22100
C618        C  0.08088290  0.76599932  0.06152719     0.20800
F619        F  0.07966467  0.74975662  0.03955545    -0.12100
F620        F  0.08224093  0.80328622  0.03234820    -0.14400
F621        F  0.08146322  0.76298216  0.13526794    -0.14400
F622        F  0.08396889  0.81642035  0.12800740    -0.12100
C623        C  0.14956524  0.65323001  0.15838911     0.25900
C624        C  0.11811666  0.64166010  0.15893507    -0.22200
C625        C  0.10042117  0.61853574  0.17722755     0.20800
C626        C  0.11355391  0.60656083  0.19397726     0.25900
C627        C  0.14484814  0.61707566  0.19274398    -0.22100
C628        C  0.16283030  0.64103304  0.17512479     0.20800
F629        F  0.19307377  0.65206032  0.17341329    -0.12100
F630        F  0.16724996  0.67521594  0.14067868    -0.14400
F631        F  0.09523609  0.58420248  0.21115928    -0.14400
F632        F  0.07007268  0.60713735  0.17880157    -0.12100
C633        C  0.44793205  0.61440536  0.17321554     0.25900
C634        C  0.44448728  0.58935533  0.18777552    -0.22200
C635        C  0.45919836  0.57431675  0.17820566     0.20800
C636        C  0.47938931  0.58602164  0.15644920     0.25900
C637        C  0.48520656  0.61295619  0.14377341    -0.22100
C638        C  0.46795668  0.62599123  0.15149001     0.20800
F639        F  0.97388486  0.65553755  0.14071673    -0.12100
F640        F  0.43296137  0.62870985  0.18073634    -0.14400
F641        F  0.49504735  0.57229818  0.14933997    -0.14400
F642        F  0.45589539  0.54959115  0.19110900    -0.12100
C643        C  0.45950192  0.87201298  0.99866359     0.25900
C644        C  0.44609959  0.84363398  0.98587560    -0.22200
C645        C  0.45385613  0.82249327  0.99522302     0.20800
C646        C  0.47588464  0.83022174  0.01522841     0.25900
C647        C  0.49041704  0.85905925  0.02698369    -0.22100
C648        C  0.48123067  0.87953198  0.01911567     0.20800
F649        F  0.99807480  0.90862873  0.02625371    -0.12100
F650        F  0.45277340  0.89312547  0.99053549    -0.14400
F651        F  0.48373963  0.80964559  0.02244631    -0.14400
F652        F  0.44137812  0.79465187  0.98401117    -0.12100
C653        C  0.31522278  0.70978519  0.90802551     0.25900
C654        C  0.31531462  0.73718800  0.90992905    -0.22200
C655        C  0.28748259  0.73591831  0.91420525     0.20800
C656        C  0.26056734  0.70818626  0.91719132     0.25900
C657        C  0.26071432  0.68091392  0.91632879    -0.22100
C658        C  0.28832845  0.68205245  0.91146044     0.20800
F659        F  0.28930743  0.65623295  0.90978265    -0.12100
F660        F  0.34125978  0.70969904  0.90334603    -0.14400
F661        F  0.23446788  0.70816851  0.92188343    -0.14400
F662        F  0.28617382  0.76157480  0.91562310    -0.12100
C663        C  0.48190527  0.83195292  0.83948079     0.25900
C664        C  0.48295609  0.84378268  0.86524802    -0.22200
C665        C  0.01024545  0.86544431  0.87525817     0.20800
C666        C  0.03635653  0.87705782  0.85950794     0.25900
C667        C  0.03473796  0.86728816  0.83285299    -0.22100
C668        C  0.00679395  0.84427790  0.82279829     0.20800
F669        F  0.00422532  0.83487771  0.79690580    -0.12100
F670        F  0.45516351  0.81075692  0.82862225    -0.14400
F671        F  0.06308154  0.89877232  0.86999893    -0.14400
F672        F  0.01261873  0.87615083  0.90065375    -0.12100
C673        C  0.16056054  0.52251953  0.81995289     0.25900
C674        C  0.12950194  0.50344531  0.81461969    -0.21000
C675        C  0.10857284  0.50842182  0.82874035     0.20800
C676        C  0.11835053  0.53062232  0.84880581     0.25900
C677        C  0.14925187  0.54807411  0.85555400    -0.22100
C678        C  0.17027992  0.54439303  0.84022901     0.20800
F679        F  0.20035711  0.56104652  0.84562842    -0.12100
F680        F  0.18162831  0.51872562  0.80686885    -0.14400
F681        F  0.09726085  0.53353661  0.86281207    -0.14400
F682        F  0.07841167  0.49082254  0.82411552    -0.12100
C683        C  0.35452477  0.88400713  0.85721411     0.25900
C684        C  0.38076968  0.88200302  0.85430476    -0.22200
C685        C  0.39901123  0.89505302  0.83141832     0.20800
C686        C  0.39036788  0.90822197  0.81125057     0.25900
C687        C  0.36286150  0.90796365  0.81309656    -0.22100
C688        C  0.34543995  0.89647992  0.83662746     0.20800
F689        F  0.31915894  0.89660572  0.83938183    -0.12100
F690        F  0.33658144  0.87212128  0.87913190    -0.14400
F691        F  0.40786721  0.91918821  0.78894583    -0.14400
F692        F  0.42488835  0.89425203  0.82809723    -0.12100
C693        C  0.22777553  0.91492543  0.77632501     0.25900
C694        C  0.23726925  0.91276616  0.75034340    -0.22200
C695        C  0.21818250  0.90874808  0.72839023     0.20800
C696        C  0.19077139  0.90823966  0.73227929     0.25900
C697        C  0.18146645  0.91089618  0.75830170    -0.22100
C698        C  0.20009285  0.91365708  0.78031120     0.20800
F699        F  0.19214421  0.91632924  0.80574202    -0.12100
F700        F  0.24532362  0.91815007  0.79800532    -0.14400
F701        F  0.17341018  0.90525939  0.71053041    -0.14400
F702        F  0.22663164  0.90657713  0.70300879    -0.12100
C703        C  0.34497606  0.82178991  0.67491443     0.25900
C704        C  0.35419216  0.83265160  0.64860411    -0.22200
C705        C  0.34870878  0.85516757  0.63884734     0.20800
C706        C  0.33738483  0.86873347  0.65579161     0.25900
C707        C  0.33100689  0.85998047  0.68289597    -0.22100
C708        C  0.33349823  0.83536898  0.69192095     0.20800
F709        F  0.32631802  0.82542750  0.71763403    -0.12100
F710        F  0.34911521  0.79959058  0.68490434    -0.14400
F711        F  0.33520983  0.89223960  0.64611335    -0.14400
F712        F  0.35619650  0.86562634  0.61328632    -0.12100
C713        C  0.02061402  0.89194364  0.65989516     0.25900
C714        C  0.99164164  0.86709106  0.66540951    -0.22200
C715        C  0.98513969  0.85618919  0.69202103     0.20800
C716        C  0.00713669  0.86877465  0.71215561     0.25900
C717        C  0.03642813  0.89279648  0.70651326    -0.22100
C718        C  0.04272740  0.90475549  0.68029647     0.20800
F719        F  0.07056606  0.92817045  0.67415854    -0.12100
F720        F  0.02772747  0.90371908  0.63475207    -0.14400
F721        F  0.99953508  0.85727565  0.73739570    -0.14400
F722        F  0.95748137  0.83279231  0.69874969    -0.12100
C723        C  0.40957579  0.51584168  0.68161385     0.25900
C724        C  0.38323551  0.51062631  0.69528589    -0.22200
C725        C  0.37093546  0.52890714  0.68867384     0.20800
C726        C  0.38307745  0.54990903  0.66758929     0.25900
C727        C  0.40805941  0.55350684  0.65260330    -0.22100
C728        C  0.42176836  0.53691211  0.66057231     0.20800
F729        F  0.44599718  0.53968425  0.64699643    -0.12100
F730        F  0.42291858  0.49954649  0.68769134    -0.14400
F731        F  0.36955535  0.56599279  0.66129190    -0.14400
F732        F  0.34254307  0.02014128  0.69667504    -0.12100
C733        C  0.02165122  0.61044171  0.51740176     0.25900
C734        C  0.01329858  0.63053243  0.52823445    -0.22200
C735        C  0.02898254  0.66067425  0.51926206     0.20800
C736        C  0.05036309  0.66977490  0.49856015     0.25900
C737        C  0.05685002  0.64907743  0.48608333    -0.22100
C738        C  0.04317917  0.61961009  0.49661409     0.20800
F739        F  0.04945023  0.59911112  0.48594881    -0.12100
F740        F  0.49921859  0.57858530  0.51564973    -0.14400
F741        F  0.06390993  0.69882841  0.49012398    -0.14400
F742        F  0.02275850  0.68133698  0.52965740    -0.12100
C743        C  0.39392079  0.67944145  0.58454430     0.25900
C744        C  0.42146785  0.68103741  0.57827735    -0.22200
C745        C  0.44756622  0.70960989  0.57544088     0.20800
C746        C  0.44643683  0.73592387  0.57962272     0.25900
C747        C  0.41916431  0.73446971  0.58698534    -0.22100
C748        C  0.39281548  0.70582518  0.58912350     0.20800
F749        F  0.36596233  0.70320226  0.59598506    -0.12100
F750        F  0.36821884  0.65229870  0.58729444    -0.14400
F751        F  0.47241879  0.76286787  0.57703111    -0.14400
F752        F  0.47437751  0.71217646  0.56846479    -0.12100
C753        C  0.33758404  0.94758346  0.34009588     0.25900
C754        C  0.35897867  0.94549894  0.35641615    -0.22200
C755        C  0.38978179  0.96282238  0.34941877     0.20800
C756        C  0.39907062  0.98318957  0.32785272     0.25900
C757        C  0.37778802  0.98671267  0.31263696    -0.22100
C758        C  0.34683631  0.96777315  0.31844402     0.20800
F759        F  0.32393289  0.47247825  0.30833769    -0.12100
F760        F  0.30758503  0.93092751  0.34569489    -0.14400
F761        F  0.42913295  0.00051433  0.32276266    -0.14400
F762        F  0.41124801  0.96160820  0.36449930    -0.12100
C763        C  0.33964863  0.97506721  0.50934428     0.25900
C764        C  0.34827338  0.97863210  0.48213834    -0.22200
C765        C  0.36731820  0.00795878  0.47221135     0.20800
C766        C  0.37071660  0.52826600  0.49396769     0.25900
C767        C  0.37068764  0.52432359  0.52198907    -0.22100
C768        C  0.35599239  0.49478694  0.53240566     0.20800
F769        F  0.35528293  0.48996191  0.55931192    -0.12100
F770        F  0.32119104  0.94722098  0.51970733    -0.14400
F771        F  0.38492297  0.55629215  0.48306138    -0.14400
F772        F  0.37542772  0.01247047  0.44589107    -0.12100
C773        C  0.39767787  0.89391337  0.51226652     0.25900
C774        C  0.38492021  0.87641435  0.48893922    -0.22200
C775        C  0.38501884  0.84924664  0.48621564     0.20800
C776        C  0.39579771  0.83887533  0.50718986     0.25900
C777        C  0.40733050  0.85580632  0.53098698    -0.22100
C778        C  0.40883877  0.88380022  0.53298445     0.20800
F779        F  0.41900415  0.90042252  0.55586994    -0.12100
F780        F  0.39848440  0.92052135  0.51544131    -0.14400
F781        F  0.39414309  0.81182909  0.50455484    -0.14400
F782        F  0.37286071  0.83173288  0.46406472    -0.12100
C783        C  0.21677358  0.76041437  0.42220570     0.25900
C784        C  0.18889660  0.75963039  0.42253327    -0.22200
C785        C  0.18915481  0.78692457  0.42610310     0.20800
C786        C  0.21657446  0.81428786  0.42907321     0.25900
C787        C  0.24447999  0.81513816  0.42805786    -0.22100
C788        C  0.24414994  0.78776738  0.42472373     0.20800
F789        F  0.27039444  0.78730219  0.42408106    -0.12100
F790        F  0.21771358  0.73473186  0.41875039    -0.14400
F791        F  0.21573175  0.84002333  0.43244195    -0.14400
F792        F  0.16281481  0.78717445  0.42698679    -0.12100
O793        O  0.77439933  0.36680286  0.43691743    -0.55500
C794        C  0.83758068  0.44818506  0.46772821     0.77200
O795        O  0.85417059  0.39629439  0.47750658    -0.56600
C796        C  0.77316976  0.34244611  0.43022962     0.77100
C797        C  0.84815560  0.42782691  0.38296696     0.79500
Cd798      Cd  0.83078785  0.39858193  0.43547408     1.37500
O799        O  0.85420608  0.45157806  0.44772467    -0.55500
O800        O  0.82211949  0.41802519  0.39291595    -0.54300
C801        C  0.86767915  0.38320027  0.46886189     0.79500
O802        O  0.86582785  0.42226586  0.39642240    -0.56700
O803        O  0.81619644  0.42157572  0.47230736    -0.55100
O804        O  0.79836542  0.34437606  0.42569213    -0.55100
O805        O  0.86514335  0.37745521  0.44385198    -0.54300
O806        O  0.90469155  0.12963154  0.56739814    -0.55500
C807        C  0.88976762  0.05361253  0.53606917     0.77200
O808        O  0.98070989  0.13718137  0.55575793    -0.56600
C809        C  0.92505466  0.15310670  0.57915857     0.77100
C810        C  0.91691851  0.07009824  0.62599233     0.79500
Cd811      Cd  0.93049178  0.09965656  0.57360356     1.37500
O812        O  0.90571255  0.08086933  0.52891690    -0.55500
O813        O  0.90124800  0.08008544  0.61551401    -0.54300
C814        C  0.98790120  0.11894850  0.54614430     0.79500
O815        O  0.94090724  0.07625791  0.61344420    -0.56700
O816        O  0.89084222  0.04848494  0.56073743    -0.55100
O817        O  0.94712452  0.15147216  0.58864783    -0.55100
O818        O  0.97020795  0.09154606  0.55195731    -0.54300
O819        O  0.89745946  0.26333117  0.60243406    -0.55500
C820        C  0.87799782  0.32925443  0.63444067     0.77200
O821        O  0.97348943  0.36147198  0.61807934    -0.56600
C822        C  0.92071107  0.26336917  0.59360942     0.77100
C823        C  0.91400222  0.34101872  0.55320823     0.79500
Cd824      Cd  0.92132400  0.31960755  0.60486994     1.37500
O825        O  0.87861640  0.30514482  0.63791241    -0.55500
O826        O  0.89634508  0.31422368  0.56089618    -0.54300
C827        C  0.97245029  0.35065533  0.64123349     0.79500
O828        O  0.93671498  0.35701663  0.56812151    -0.56700
O829        O  0.89607252  0.34714912  0.61709861    -0.55100
O830        O  0.94358969  0.28915459  0.58936498    -0.55100
O831        O  0.94844870  0.32642134  0.64693209    -0.54300
O832        O  0.77384884  0.40525790  0.73043784    -0.55500
C833        C  0.82822296  0.38174675  0.70436107     0.77200
O834        O  0.87442384  0.46530082  0.71826323    -0.56600
C835        C  0.76819019  0.41709881  0.75024076     0.77100
C836        C  0.84993018  0.41535040  0.79321255     0.79500
Cd837      Cd  0.82812864  0.42548713  0.74165224     1.37500
O838        O  0.83293970  0.38121190  0.72923739    -0.55500
O839        O  0.86725651  0.43644810  0.77742155    -0.54300
C840        C  0.86528366  0.48360517  0.71394213     0.79500
O841        O  0.82249870  0.40030185  0.78600728    -0.56700
O842        O  0.82077328  0.40063042  0.69709732    -0.55100
O843        O  0.78999395  0.43227256  0.76623429    -0.55100
O844        O  0.84043776  0.47682286  0.72502489    -0.54300
O845        O  0.63785159  0.40307755  0.78641510    -0.55500
C846        C  0.55663039  0.37806024  0.81129961     0.77200
O847        O  0.59256007  0.45512729  0.79881312    -0.56600
C848        C  0.65393206  0.41292325  0.76542965     0.77100
C849        C  0.56614497  0.40273743  0.72378842     0.79500
Cd850      Cd  0.60097520  0.41882048  0.77322752     1.37500
O851        O  0.58401406  0.39497764  0.81809897    -0.55500
O852        O  0.57495950  0.38648747  0.73504371    -0.54300
C853        C  0.61955499  0.47674177  0.79841075     0.79500
O854        O  0.57545011  0.42845607  0.73431281    -0.56700
O855        O  0.55092071  0.37753948  0.78653257    -0.55100
O856        O  0.64506058  0.42457312  0.74790730    -0.55100
O857        O  0.63743433  0.47290033  0.78368352    -0.54300
O858        O  0.87632458  0.27589445  0.90981132    -0.55500
C859        C  0.95688529  0.33978862  0.88442436     0.77200
O860        O  0.87931207  0.36172724  0.90437813    -0.56600
C861        C  0.85105909  0.27259554  0.91677247     0.77100
C862        C  0.93509795  0.34695296  0.96753975     0.79500
Cd863      Cd  0.90574825  0.33206767  0.91470534     1.37500
O864        O  0.93088027  0.31667863  0.88114739    -0.55500
O865        O  0.92453666  0.32133741  0.95675235    -0.54300
C866        C  0.88966384  0.36872064  0.88063654     0.79500
O867        O  0.92921672  0.36508353  0.95538223    -0.56700
O868        O  0.95894647  0.35856551  0.90194031    -0.55100
O869        O  0.85125261  0.29658815  0.92284877    -0.55100
O870        O  0.90762952  0.35995006  0.87368082    -0.54300
O871        O  0.60043529  0.22205636  0.10684030    -0.55500
C872        C  0.61194429  0.14989739  0.13086638     0.77200
O873        O  0.52587550  0.12341813  0.10994026    -0.56600
C874        C  0.58651108  0.22719377  0.08833512     0.77100
C875        C  0.59487856  0.15594821  0.04565538     0.79500
Cd876      Cd  0.57709647  0.16748784  0.09744166     1.37500
O877        O  0.61783944  0.17701138  0.13126792    -0.55500
O878        O  0.61247829  0.17669122  0.06153498    -0.54300
C879        C  0.52098469  0.13768658  0.12814044     0.79500
O880        O  0.56734383  0.14068369  0.05291956    -0.56700
O881        O  0.59088065  0.13243523  0.11524354    -0.55100
O882        O  0.56858767  0.20481121  0.07391524    -0.55100
O883        O  0.54038556  0.16539672  0.13004839    -0.54300
O884        O  0.73531214  0.09047973  0.23307075    -0.55500
C885        C  0.66421356  0.09945845  0.20219829     0.77200
O886        O  0.63911652  0.01450776  0.23028857    -0.56600
C887        C  0.73978314  0.07634534  0.25170851     0.77100
C888        C  0.66226524  0.08779699  0.28807832     0.79500
Cd889      Cd  0.68030553  0.06799433  0.24066190     1.37500
O890        O  0.69082963  0.11234309  0.21185641    -0.55500
O891        O  0.68063752  0.10505665  0.27050064    -0.54300
C892        C  0.65223393  0.01273318  0.20924590     0.79500
O893        O  0.65229172  0.05979831  0.28473119    -0.56700
O894        O  0.64624592  0.07300666  0.21030643    -0.55100
O895        O  0.71699274  0.05923429  0.26601211    -0.55100
O896        O  0.67829808  0.03501839  0.20474540    -0.54300
O897        O  0.86762095  0.08175066  0.28472152    -0.55500
C898        C  0.95145081  0.11014405  0.30238940     0.77200
O899        O  0.91390373  0.03197178  0.29243828    -0.56600
C900        C  0.85138314  0.07444572  0.26373072     0.77100
C901        C  0.93424564  0.08465354  0.21461535     0.79500
Cd902      Cd  0.90437416  0.06764009  0.26677703     1.37500
O903        O  0.92400070  0.09567043  0.30957580    -0.55500
O904        O  0.92626781  0.10044315  0.22784822    -0.54300
C905        C  0.88711721  0.00995361  0.29221715     0.79500
O906        O  0.92667704  0.05908360  0.22466761    -0.56700
O907        O  0.95660843  0.10694166  0.27815590    -0.55100
O908        O  0.85966225  0.06425841  0.24445250    -0.55100
O909        O  0.86891975  0.01297599  0.27711654    -0.54300
O910        O  0.63623793  0.22707254  0.40992908    -0.55500
C911        C  0.55399073  0.16018224  0.37657157     0.77200
O912        O  0.62419771  0.16403117  0.36709520    -0.56600
C913        C  0.66016761  0.22836519  0.41853317     0.77100
C914        C  0.57581118  0.15589339  0.46116748     0.79500
Cd915      Cd  0.60509818  0.17118048  0.40900161     1.37500
O916        O  0.57878552  0.18494829  0.37463838    -0.55500
O917        O  0.57963979  0.17811172  0.44722956    -0.54300
C918        C  0.62441524  0.14016936  0.37250858     0.79500
O919        O  0.58708924  0.14080709  0.45162618    -0.56700
O920        O  0.55303739  0.14168919  0.39382306    -0.55100
O921        O  0.65833760  0.20330829  0.42327179    -0.55100
O922        O  0.61564340  0.12963966  0.39601871    -0.54300
O923        O  0.60137651  0.35838576  0.05379803    -0.55500
C924        C  0.62846469  0.44069401  0.03251748     0.77200
O925        O  0.55118914  0.40732011  0.04704746    -0.56600
C926        C  0.59178102  0.34163158  0.07435955     0.77100
C927        C  0.60382304  0.42780245  0.12178937     0.79500
Cd928      Cd  0.58711997  0.39576068  0.07024425     1.37500
O929        O  0.63261747  0.44405218  0.05763281    -0.55500
O930        O  0.62072578  0.42098848  0.10883238    -0.54300
C931        C  0.52860362  0.38088421  0.04680190     0.79500
O932        O  0.57781982  0.41850287  0.11160903    -0.56700
O933        O  0.60725371  0.41520856  0.02488782    -0.55100
O934        O  0.58046805  0.34994516  0.09263095    -0.55100
O935        O  0.53185961  0.36167157  0.06000807    -0.54300
O936        O  0.73839653  0.13347219  0.93550827    -0.55500
C937        C  0.66336640  0.04634893  0.96230041     0.77200
O938        O  0.63915433  0.10877217  0.94027958    -0.56600
C939        C  0.73977959  0.15605048  0.92371732     0.77100
C940        C  0.66768680  0.07350653  0.87729267     0.79500
Cd941      Cd  0.68216507  0.10042334  0.93043897     1.37500
O942        O  0.69141055  0.06569736  0.96055355    -0.55500
O943        O  0.69053338  0.07761914  0.89061980    -0.54300
C944        C  0.65050572  0.12297629  0.96202558     0.79500
O945        O  0.65229377  0.08393049  0.88770553    -0.56700
O946        O  0.64594495  0.05264493  0.94965097    -0.55100
O947        O  0.71501514  0.15234155  0.91459652    -0.55100
O948        O  0.67642142  0.12747623  0.96828848    -0.54300
C949        C  0.61897961  0.99825690  0.97883874     0.25900
C950        C  0.65061763  0.01799548  0.97837355    -0.22200
C951        C  0.67858410  0.52016117  0.00627569     0.20800
C952        C  0.66819668  0.49457572  0.02263801     0.25900
C953        C  0.64537487  0.46603940  0.01340474    -0.22100
C954        C  0.63553263  0.46328913  0.98655137     0.20800
F955        F  0.61445125  0.43618020  0.97632610    -0.12100
F956        F  0.60015167  0.00358359  0.96361590    -0.14400
F957        F  0.67923729  0.49811007  0.04805212    -0.14400
F958        F  0.69947970  0.02860931  0.99395938    -0.12100
C959        C  0.50663284  0.15037333  0.31475190     0.25900
C960        C  0.97644984  0.12773173  0.32164534    -0.22200
C961        C  0.97253716  0.11984615  0.34903873     0.20800
C962        C  0.49826200  0.13202855  0.36854261     0.25900
C963        C  0.52757642  0.15227737  0.35918017    -0.22100
C964        C  0.53144049  0.16210752  0.33233324     0.20800
F965        F  0.55948991  0.18132502  0.32256127    -0.12100
F966        F  0.51136700  0.15913712  0.28859778    -0.14400
F967        F  0.49370132  0.12238967  0.39445146    -0.14400
F968        F  0.94494305  0.09917996  0.35873763    -0.12100
C969        C  0.63698783  0.08332066  0.33324923     0.25900
C970        C  0.65289434  0.10049212  0.31058114    -0.22200
C971        C  0.65960704  0.13060935  0.30904877     0.20800
C972        C  0.65058873  0.14313029  0.32925341     0.25900
C973        C  0.63460298  0.12613780  0.35191572    -0.22100
C974        C  0.62798267  0.09604689  0.35376062     0.20800
F975        F  0.61218565  0.07869623  0.37502134    -0.12100
F976        F  0.63019426  0.05428804  0.33564210    -0.14400
F977        F  0.65769886  0.17224107  0.32640770    -0.14400
F978        F  0.67452567  0.14819202  0.28758544    -0.12100
C979        C  0.81631894  0.08474926  0.23677612     0.25900
C980        C  0.82411074  0.07741177  0.26159624    -0.22200
C981        C  0.80500879  0.07183815  0.28382134     0.20800
C982        C  0.77788591  0.07213299  0.28087764     0.25900
C983        C  0.76968949  0.07868489  0.25578276    -0.22100
C984        C  0.78965080  0.08573860  0.23396957     0.20800
F985        F  0.78279337  0.09238064  0.20948700    -0.12100
F986        F  0.83462380  0.09102668  0.21509789    -0.14400
F987        F  0.75960989  0.06589432  0.30257290    -0.14400
F988        F  0.81189676  0.06479259  0.30811791    -0.12100
C989        C  0.64567729  0.46122296  0.15387560     0.25900
C990        C  0.61476631  0.44672786  0.14672001    -0.22200
C991        C  0.59528829  0.45217192  0.16270331     0.20800
C992        C  0.60671961  0.47267703  0.18433650     0.25900
C993        C  0.63792217  0.48865436  0.19008317    -0.22100
C994        C  0.65707016  0.48206037  0.17504409     0.20800
F995        F  0.68679805  0.99981941  0.17262984    -0.12100
F996        F  0.66539391  0.45631638  0.13968503    -0.14400
F997        F  0.58752321  0.47827555  0.19857022    -0.14400
F998        F  0.56528597  0.43833940  0.15698519    -0.12100
C999        C  0.63722946  0.16918619  0.01321903     0.25900
C1000       C  0.60693284  0.14944385  0.02087547    -0.22200
C1001       C  0.58996985  0.12233290  0.00638578     0.20800
C1002       C  0.60361348  0.11443693  0.98593924     0.25900
C1003       C  0.63446110  0.13329037  0.97988257    -0.22100
C1004       C  0.65085376  0.16101518  0.99324264     0.20800
F1005       F  0.68045420  0.18005771  0.98733298    -0.12100
F1006       F  0.65425137  0.19613147  0.02572663    -0.14400
F1007       F  0.58727900  0.08735595  0.97348373    -0.14400
F1008       F  0.56074439  0.10263516  0.01296185    -0.12100
C1009       C  0.58784927  0.29452367  0.05499645     0.25900
C1010       C  0.59322756  0.31365565  0.07713051    -0.22200
C1011       C  0.59833784  0.30499523  0.10252292     0.20800
C1012       C  0.59728437  0.27745809  0.10593327     0.25900
C1013       C  0.59037115  0.25756646  0.08412126    -0.22100
C1014       C  0.58599005  0.26655339  0.05852946     0.20800
F1015       F  0.57983906  0.24822868  0.03689298    -0.12100
F1016       F  0.58304753  0.30225972  0.03015208    -0.14400
F1017       F  0.60175647  0.26973283  0.13089664    -0.14400
F1018       F  0.60439588  0.32329636  0.12415799    -0.12100
C1019       C  0.65009770  0.15676662  0.16683526     0.25900
C1020       C  0.62787120  0.13836406  0.14783122    -0.22200
C1021       C  0.61981071  0.10783868  0.14576612     0.20800
C1022       C  0.63245503  0.09576833  0.16295217     0.25900
C1023       C  0.65384964  0.11381672  0.18245557    -0.22100
C1024       C  0.66306719  0.14458497  0.18393980     0.20800
F1025       F  0.68337631  0.16246930  0.20286869    -0.12100
F1026       F  0.65870109  0.18629343  0.16943184    -0.14400
F1027       F  0.62353021  0.06611044  0.16056708    -0.14400
F1028       F  0.59913998  0.08918693  0.12739666    -0.12100
C1029       C  0.96548090  0.12735722  0.18294452     0.25900
C1030       C  0.95272261  0.09661721  0.18960075    -0.22200
C1031       C  0.95973343  0.07860541  0.17321231     0.20800
C1032       C  0.98008930  0.09137490  0.15161403     0.25900
C1033       C  0.99411566  0.12245894  0.14616537    -0.22100
C1034       C  0.98588015  0.14002983  0.16163584     0.20800
F1035       F  0.49947097  0.17085547  0.15699555    -0.12100
F1036       F  0.95952181  0.14581935  0.19789478    -0.14400
F1037       F  0.98755245  0.07369451  0.13718690    -0.14400
F1038       F  0.94773168  0.04884297  0.17856300    -0.12100
C1039       C  0.97602580  0.38621149  0.99714377     0.25900
C1040       C  0.95523623  0.35566796  0.99169397    -0.22200
C1041       C  0.95694571  0.33362470  0.00724551     0.20800
C1042       C  0.97991360  0.34188151  0.02652712     0.25900
C1043       C  0.00206481  0.37238580  0.03050365    -0.22100
C1044       C  0.99917452  0.39444914  0.01616589     0.20800
F1045       F  0.51963676  0.42451609  0.01865465    -0.12100
F1046       F  0.97546342  0.40826166  0.98264427    -0.14400
F1047       F  0.98149001  0.31978569  0.04003372    -0.14400
F1048       F  0.93716189  0.30387361  0.00302623    -0.12100
C1049       C  0.82370544  0.21559213  0.91899336     0.25900
C1050       C  0.82276690  0.24250200  0.91778849    -0.22200
C1051       C  0.79429832  0.24044598  0.91779361     0.20800
C1052       C  0.76757440  0.21241359  0.91924298     0.25900
C1053       C  0.76846820  0.18556783  0.92115829    -0.22100
C1054       C  0.79686965  0.18747927  0.92091502     0.20800
F1055       F  0.79869249  0.16209547  0.92208334    -0.12100
F1056       F  0.85060426  0.21642373  0.91879330    -0.14400
F1057       F  0.74073018  0.21170091  0.91946453    -0.14400
F1058       F  0.79216619  0.26563709  0.91613271    -0.12100
C1059       C  0.97931371  0.33244360  0.84241089     0.25900
C1060       C  0.98336156  0.34545564  0.86805318    -0.22200
C1061       C  0.51212383  0.36232417  0.87565196     0.20800
C1062       C  0.53671964  0.37143412  0.85832036     0.25900
C1063       C  0.53202368  0.36215531  0.83123089    -0.22100
C1064       C  0.50239567  0.34137979  0.82259206     0.20800
F1065       F  0.49689385  0.33127248  0.79680992    -0.12100
F1066       F  0.95114484  0.31283630  0.83300548    -0.14400
F1067       F  0.56489877  0.39117557  0.86763010    -0.14400
F1068       F  0.51750417  0.37318928  0.90119766    -0.12100
C1069       C  0.66913960  0.02684002  0.81913931     0.25900
C1070       C  0.63850956  0.01080847  0.81128994    -0.21000
C1071       C  0.61872277  0.01958897  0.82209768     0.20800
C1072       C  0.62871661  0.04177164  0.84224853     0.25900
C1073       C  0.65869106  0.05562114  0.85193334    -0.22100
C1074       C  0.67909207  0.04893863  0.83915522     0.20800
F1075       F  0.70855241  0.06278054  0.84689052    -0.12100
F1076       F  0.68935639  0.02011811  0.80839948    -0.14400
F1077       F  0.60840001  0.04794974  0.85363038    -0.14400
F1078       F  0.58912592  0.00515619  0.81475590    -0.12100
C1079       C  0.85122817  0.38037906  0.86076812     0.25900
C1080       C  0.88077461  0.38504457  0.86118135    -0.22200
C1081       C  0.90090858  0.40270999  0.84065461     0.20800
C1082       C  0.89134139  0.41396836  0.81947273     0.25900
C1083       C  0.86119105  0.40750513  0.81795382    -0.22100
C1084       C  0.84142637  0.39113593  0.83923152     0.20800
F1085       F  0.81231625  0.38487075  0.83890691    -0.12100
F1086       F  0.83121038  0.36380038  0.88031552    -0.14400
F1087       F  0.91122329  0.42962875  0.79953822    -0.14400
F1088       F  0.92987531  0.40852940  0.84070739    -0.12100
C1089       C  0.72828931  0.41625670  0.78021131     0.25900
C1090       C  0.73796805  0.41392700  0.75429220    -0.22200
C1091       C  0.71896459  0.40972072  0.73220206     0.20800
C1092       C  0.69146729  0.40896901  0.73586301     0.25900
C1093       C  0.68202110  0.41169927  0.76173968    -0.22100
C1094       C  0.70049563  0.41485812  0.78391552     0.20800
F1095       F  0.69229603  0.41793283  0.80913413    -0.12100
F1096       F  0.74574534  0.41989544  0.80206612    -0.14400
F1097       F  0.67402990  0.40552664  0.71403736    -0.14400
F1098       F  0.72748413  0.40748105  0.70687196    -0.12100
C1099       C  0.84838615  0.32559102  0.67618952     0.25900
C1100       C  0.85873054  0.33754256  0.65035978    -0.22200
C1101       C  0.85374626  0.36054970  0.64105696     0.20800
C1102       C  0.84125971  0.37312562  0.65794858     0.25900
C1103       C  0.83380678  0.36330604  0.68472533    -0.22100
C1104       C  0.83614334  0.33844066  0.69324986     0.20800
F1105       F  0.82777306  0.32735575  0.71852054    -0.12100
F1106       F  0.85209104  0.30294938  0.68570649    -0.14400
F1107       F  0.83874913  0.39656034  0.64860958    -0.14400
F1108       F  0.86235007  0.37203198  0.61591432    -0.12100
C1109       C  0.51727306  0.39797987  0.66359058     0.25900
C1110       C  0.50046875  0.36662780  0.65929105    -0.22200
C1111       C  0.50660930  0.34785832  0.67522563     0.20800
C1112       C  0.52856035  0.35984596  0.69538326     0.25900
C1113       C  0.54487212  0.39109865  0.70051125    -0.22100
C1114       C  0.53911526  0.41011998  0.68423752     0.20800
F1115       F  0.55426636  0.44033800  0.68849051    -0.12100
F1116       F  0.51155913  0.41668023  0.64872912    -0.14400
F1117       F  0.53285959  0.34042269  0.71060164    -0.14400
F1118       F  0.49111651  0.31756192  0.67134660    -0.12100
C1119       C  0.90635355  0.01116614  0.67792014     0.25900
C1120       C  0.87963331  0.00557252  0.69106147    -0.22200
C1121       C  0.86750246  0.02404956  0.68472174     0.20800
C1122       C  0.88064512  0.04617764  0.66469931     0.25900
C1123       C  0.90636482  0.05058296  0.65046155    -0.22100
C1124       C  0.91957408  0.03339670  0.65796497     0.20800
F1125       F  0.94437883  0.03681764  0.64496207    -0.12100
F1126       F  0.91913689  0.99423040  0.68346536    -0.14400
F1127       F  0.86730679  0.06248365  0.65859181    -0.14400
F1128       F  0.84519443  0.52569835  0.70239210    -0.12100
C1129       C  0.52354395  0.10952842  0.51844717     0.25900
C1130       C  0.51505429  0.12960432  0.52901676    -0.22200
C1131       C  0.52976765  0.15939454  0.51929043     0.20800
C1132       C  0.55062910  0.16823383  0.49825712     0.25900
C1133       C  0.55775855  0.14768476  0.48647429    -0.22100
C1134       C  0.54484865  0.11854882  0.49754380     0.20800
F1135       F  0.55143003  0.09815781  0.48713623    -0.12100
F1136       F  0.00954920  0.08027254  0.52689445    -0.14400
F1137       F  0.56291894  0.19678398  0.48873311    -0.14400
F1138       F  0.52248659  0.17965125  0.52879440    -0.12100
C1139       C  0.89568988  0.18000527  0.58479472     0.25900
C1140       C  0.92353173  0.18114346  0.58173016    -0.22200
C1141       C  0.95025877  0.20947725  0.58170925     0.20800
C1142       C  0.94926352  0.23602782  0.58504174     0.25900
C1143       C  0.92146724  0.23499989  0.58888045    -0.22100
C1144       C  0.89466807  0.20655375  0.58864661     0.20800
F1145       F  0.86734948  0.20430120  0.59218204    -0.12100
F1146       F  0.86944368  0.15307203  0.58492964    -0.14400
F1147       F  0.97575522  0.26273781  0.58500847    -0.14400
F1148       F  0.97750758  0.21156601  0.57800379    -0.12100
C1149       C  0.83604880  0.44671504  0.34060841     0.25900
C1150       C  0.85768278  0.44618754  0.35780736    -0.22200
C1151       C  0.88854893  0.46565989  0.35210215     0.20800
C1152       C  0.89751813  0.48633577  0.33081826     0.25900
C1153       C  0.87586098  0.48815156  0.31460236    -0.22100
C1154       C  0.84500086  0.46729571  0.31923951     0.20800
F1155       F  0.82480214  0.96452900  0.30019399    -0.12100
F1156       F  0.80602783  0.42790478  0.34492624    -0.14400
F1157       F  0.92753915  0.50572732  0.32714347    -0.14400
F1158       F  0.91023271  0.46619541  0.36820825    -0.12100
C1159       C  0.84042777  0.47016075  0.51334220     0.25900
C1160       C  0.84430309  0.47399988  0.48537283    -0.22200
C1161       C  0.85842301  0.50330580  0.47471865     0.20800
C1162       C  0.87964238  0.03275219  0.48907782     0.25900
C1163       C  0.87249151  0.02867289  0.51665243    -0.22100
C1164       C  0.85141760  0.99954130  0.52589565     0.20800
F1165       F  0.84338425  0.99463978  0.55222423    -0.12100
F1166       F  0.82738079  0.44219006  0.52433173    -0.14400
F1167       F  0.89973015  0.06040770  0.47924204    -0.14400
F1168       F  0.86164550  0.50768131  0.44771717    -0.12100
C1169       C  0.89862995  0.39248406  0.51047277     0.25900
C1170       C  0.88442110  0.37449971  0.48771344    -0.22200
C1171       C  0.88309779  0.34661832  0.48524506     0.20800
C1172       C  0.89383325  0.33602833  0.50608938     0.25900
C1173       C  0.90699621  0.35359770  0.52928100    -0.22100
C1174       C  0.91004309  0.38228073  0.53089155     0.20800
F1175       F  0.92187391  0.39949497  0.55327557    -0.12100
F1176       F  0.90055051  0.41963726  0.51341229    -0.14400
F1177       F  0.89059453  0.30825091  0.50396879    -0.14400
F1178       F  0.86948359  0.32868563  0.46359481    -0.12100
C1179       C  0.71688019  0.25856127  0.42203508     0.25900
C1180       C  0.68889280  0.25749975  0.42239107    -0.22200
C1181       C  0.68878503  0.28460263  0.42587698     0.20800
C1182       C  0.71600723  0.31210325  0.42879603     0.25900
C1183       C  0.74406770  0.31325271  0.42784435    -0.22100
C1184       C  0.74407276  0.28604003  0.42452372     0.20800
F1185       F  0.77044572  0.28583446  0.42372014    -0.12100
F1186       F  0.71809710  0.23302780  0.41857190    -0.14400
F1187       F  0.71477980  0.33762022  0.43228439    -0.14400
F1188       F  0.66227103  0.28451409  0.42682416    -0.12100
O1189       O  0.77509176  0.86909114  0.43790754    -0.55500
C1190       C  0.84049853  0.95205408  0.46404592     0.77200
O1191       O  0.85366274  0.89713404  0.47651064    -0.56600
C1192       C  0.77313487  0.84477834  0.42991669     0.77100
C1193       C  0.84871978  0.92611104  0.38062451     0.79500
Cd1194     Cd  0.83142879  0.89999385  0.43405749     1.37500
O1195       O  0.85672333  0.95402660  0.44413210    -0.55500
O1196       O  0.82277456  0.91725361  0.39041788    -0.54300
C1197       C  0.86689506  0.88357935  0.46835247     0.79500
O1198       O  0.86628551  0.92114218  0.39488854    -0.56700
O1199       O  0.81849599  0.92594764  0.46918946    -0.55100
O1200       O  0.79781858  0.84647573  0.42352904    -0.55100
O1201       O  0.86462634  0.87766902  0.44339737    -0.54300
O1202       O  0.90303354  0.62967909  0.56696944    -0.55500
C1203       C  0.88625051  0.55107319  0.53796608     0.77200
O1204       O  0.97682313  0.63709180  0.55333287    -0.56600
C1205       C  0.92357560  0.65311772  0.57865613     0.77100
C1206       C  0.91590489  0.57110160  0.62712940     0.79500
Cd1207     Cd  0.92823442  0.59917498  0.57369505     1.37500
O1208       O  0.90393930  0.57737513  0.52923631    -0.55500
O1209       O  0.90050612  0.58161275  0.61702460    -0.54300
C1210       C  0.98631282  0.61979368  0.54621985     0.79500
O1211       O  0.93894627  0.57593743  0.61364237    -0.56700
O1212       O  0.88613759  0.54807911  0.56313412    -0.55100
O1213       O  0.94542323  0.65124317  0.58832493    -0.55100
O1214       O  0.97032292  0.59273791  0.55400080    -0.54300
O1215       O  0.89648555  0.76339450  0.60170565    -0.55500
C1216       C  0.87232398  0.82382027  0.63203811     0.77200
O1217       O  0.97295873  0.85842520  0.61918440    -0.56600
C1218       C  0.92018803  0.76359156  0.59408449     0.77100
C1219       C  0.91348760  0.84198609  0.55337021     0.79500
Cd1220     Cd  0.91976362  0.81916775  0.60484740     1.37500
O1221       O  0.87624386  0.80189227  0.63720188    -0.55500
O1222       O  0.89871165  0.81415345  0.55889107    -0.54300
C1223       C  0.96814807  0.85191501  0.64399417     0.79500
O1224       O  0.93335415  0.85881912  0.57042482    -0.56700
O1225       O  0.88876601  0.84144764  0.61372337    -0.55100
O1226       O  0.94343569  0.78942877  0.59119323    -0.55100
O1227       O  0.94179452  0.83100253  0.64979677    -0.54300
O1228       O  0.77081640  0.90164966  0.72650727    -0.55500
C1229       C  0.82256726  0.87611369  0.70080859     0.77200
O1230       O  0.87091452  0.95949849  0.71208264    -0.56600
C1231       C  0.76614303  0.91496482  0.74569189     0.77100
C1232       C  0.84896729  0.91347264  0.78750412     0.79500
Cd1233     Cd  0.82512064  0.92165356  0.73693375     1.37500
O1234       O  0.82643211  0.87525944  0.72582364    -0.55500
O1235       O  0.86592159  0.93327057  0.77059604    -0.54300
C1236       C  0.86281871  0.97878301  0.70895033     0.79500
O1237       O  0.82103538  0.89914484  0.78195091    -0.56700
O1238       O  0.81723137  0.89633355  0.69300328    -0.55100
O1239       O  0.78849890  0.93085374  0.76093409    -0.55100
O1240       O  0.83864746  0.97293182  0.72082371    -0.54300
O1241       O  0.64030484  0.90763939  0.78522990    -0.55500
C1242       C  0.56109228  0.88503228  0.81466073     0.77200
O1243       O  0.60087495  0.96907731  0.78450830    -0.56600
C1244       C  0.65344024  0.91345546  0.76266439     0.77100
C1245       C  0.56043177  0.90384778  0.72845133     0.79500
Cd1246     Cd  0.60258136  0.92224153  0.77327269     1.37500
O1247       O  0.57813118  0.91317311  0.81739152    -0.55500
O1248       O  0.55749572  0.88772438  0.74860470    -0.54300
C1249       C  0.62680400  0.98247202  0.79545719     0.79500
O1250       O  0.58405643  0.92983190  0.72817383    -0.56700
O1251       O  0.56550637  0.87341375  0.79402116    -0.55100
O1252       O  0.64208810  0.92185064  0.74439678    -0.55100
O1253       O  0.64177333  0.96918119  0.79377507    -0.54300
O1254       O  0.86770978  0.76918733  0.90016617    -0.55500
C1255       C  0.95374362  0.83587456  0.87947439     0.77200
O1256       O  0.87997290  0.86036375  0.89722463    -0.56600
C1257       C  0.84343138  0.76660172  0.90931632     0.77100
C1258       C  0.92711069  0.83683710  0.96005856     0.79500
Cd1259     Cd  0.89958660  0.82487874  0.90677272     1.37500
O1260       O  0.92860241  0.81217533  0.87459009    -0.55500
O1261       O  0.91656447  0.81186276  0.94802171    -0.54300
C1262       C  0.88595848  0.86239462  0.87225622     0.79500
O1263       O  0.92207107  0.85600709  0.94874322    -0.56700
O1264       O  0.95347251  0.85332450  0.89722316    -0.55100
O1265       O  0.84511762  0.79087626  0.91699878    -0.55100
O1266       O  0.89787427  0.84756635  0.86405786    -0.54300
O1267       O  0.58771364  0.72021161  0.11688364    -0.55500
C1268       C  0.60719164  0.65879368  0.14547042     0.77200
O1269       O  0.52637132  0.61837562  0.11576667    -0.56600
C1270       C  0.57885742  0.72673031  0.09543871     0.77100
C1271       C  0.59105759  0.65016615  0.05475836     0.79500
Cd1272     Cd  0.57235784  0.66748598  0.10367931     1.37500
O1273       O  0.62053520  0.67878987  0.12763850    -0.55500
O1274       O  0.60901449  0.66995946  0.07111295    -0.54300
C1275       C  0.51240824  0.63020126  0.12646468     0.79500
O1276       O  0.56317010  0.63778714  0.06056655    -0.56700
O1277       O  0.57869574  0.64527592  0.14484156    -0.55100
O1278       O  0.56746332  0.70616392  0.07779310    -0.55100
O1279       O  0.52448977  0.65840852  0.12355422    -0.54300
O1280       O  0.73367635  0.59218296  0.23457820    -0.55500
C1281       C  0.66072818  0.60540797  0.21132821     0.77200
O1282       O  0.63873865  0.51516983  0.23097641    -0.56600
C1283       C  0.73812910  0.57749376  0.25272299     0.77100
C1284       C  0.66381084  0.58694896  0.29283917     0.79500
Cd1285     Cd  0.67854600  0.56914538  0.24220127     1.37500
O1286       O  0.68837409  0.61261165  0.21193891    -0.55500
O1287       O  0.68592696  0.60414692  0.27800139    -0.54300
C1288       C  0.65126098  0.51462133  0.20910999     0.79500
O1289       O  0.64886480  0.55947524  0.28550284    -0.56700
O1290       O  0.64262092  0.58170104  0.22387760    -0.55100
O1291       O  0.71515468  0.55949257  0.26646088    -0.55100
O1292       O  0.67597950  0.53820985  0.20361404    -0.54300
O1293       O  0.86948733  0.58924753  0.28517852    -0.55500
C1294       C  0.95297313  0.61460468  0.30178087     0.77200
O1295       O  0.91263092  0.53395747  0.29231331    -0.56600
C1296       C  0.85125023  0.57897624  0.26551650     0.77100
C1297       C  0.92868578  0.58289002  0.21391203     0.79500
Cd1298     Cd  0.90352390  0.57112153  0.26816551     1.37500
O1299       O  0.92572100  0.60157414  0.30951700    -0.55500
O1300       O  0.92258156  0.60052106  0.22647651    -0.54300
C1301       C  0.88522617  0.51403588  0.29574005     0.79500
O1302       O  0.92176081  0.55844195  0.22590157    -0.56700
O1303       O  0.95706507  0.60934930  0.27781269    -0.55100
O1304       O  0.85737032  0.56571172  0.24733352    -0.55100
O1305       O  0.86630373  0.51875805  0.28362922    -0.54300
O1306       O  0.63587044  0.73067526  0.40941959    -0.55500
C1307       C  0.55573943  0.66679560  0.37218499     0.77200
O1308       O  0.62876212  0.66672588  0.36786167    -0.56600
C1309       C  0.65961511  0.73154681  0.41797421     0.77100
C1310       C  0.57470347  0.65852214  0.45871111     0.79500
Cd1311     Cd  0.60467522  0.67478466  0.40675428     1.37500
O1312       O  0.58227864  0.68883709  0.36878896    -0.55500
O1313       O  0.58198886  0.68316095  0.44711783    -0.54300
C1314       C  0.62529505  0.64140524  0.37423689     0.79500
O1315       O  0.58316815  0.64201535  0.44715715    -0.56700
O1316       O  0.55196259  0.64974041  0.39184690    -0.55100
O1317       O  0.65760511  0.70627991  0.42188660    -0.55100
O1318       O  0.61200111  0.63053305  0.39643430    -0.54300
O1319       O  0.59353074  0.85713566  0.05861551    -0.55500
C1320       C  0.60916836  0.94106135  0.03141452     0.77200
O1321       O  0.52616252  0.88951631  0.06191894    -0.56600
C1322       C  0.58183577  0.84025550  0.07895842     0.77100
C1323       C  0.59848513  0.92759015  0.12086889     0.79500
Cd1324     Cd  0.57659219  0.89358127  0.07054999     1.37500
O1325       O  0.62046530  0.92543863  0.03944346    -0.55500
O1326       O  0.61543500  0.92737109  0.10253615    -0.54300
C1327       C  0.51767455  0.86894005  0.04428942     0.79500
O1328       O  0.57025287  0.91133119  0.11642166    -0.56700
O1329       O  0.58385148  0.93434722  0.04128684    -0.55100
O1330       O  0.56845428  0.84838791  0.09539187    -0.55100
O1331       O  0.53483493  0.85818974  0.04100124    -0.54300
O1332       O  0.73262583  0.62906671  0.93364067    -0.55500
C1333       C  0.67145471  0.54467620  0.96522806     0.77200
O1334       O  0.63028400  0.59558422  0.95114903    -0.56600
C1335       C  0.73222786  0.65118677  0.92278217     0.77100
C1336       C  0.65950837  0.56695675  0.88192463     0.79500
Cd1337     Cd  0.67679839  0.59517845  0.93459951     1.37500
O1338       O  0.69496806  0.57045328  0.96773400    -0.55500
O1339       O  0.68481440  0.57483885  0.89271831    -0.54300
C1340       C  0.64411558  0.61465920  0.96967201     0.79500
O1341       O  0.64277292  0.57448737  0.89445373    -0.56700
O1342       O  0.65162638  0.54303859  0.94914969    -0.55100
O1343       O  0.70634324  0.64708219  0.91678374    -0.55100
O1344       O  0.67223384  0.62467958  0.97120255    -0.54300
C1345       C  0.64568094  0.48880714  0.97039429     0.25900
C1346       C  0.66617749  0.51768228  0.98050914    -0.22200
C1347       C  0.66893211  0.01055689  0.99399625     0.20800
C1348       C  0.65573842  0.98470215  0.01043325     0.25900
C1349       C  0.62406240  0.96609239  0.01175820    -0.22100
C1350       C  0.60598058  0.97295114  0.99540589     0.20800
F1351       F  0.57535720  0.95518514  0.99556736    -0.12100
F1352       F  0.63435413  0.48532148  0.94508371    -0.14400
F1353       F  0.67383674  0.97876289  0.02605679    -0.14400
F1354       F  0.69901924  0.54755217  0.01644444    -0.12100
C1355       C  0.51042097  0.64956284  0.30807001     0.25900
C1356       C  0.97874828  0.63308666  0.32022938    -0.22200
C1357       C  0.97458261  0.62960245  0.34825774     0.20800
C1358       C  0.50092548  0.64753805  0.36359619     0.25900
C1359       C  0.53052219  0.65997006  0.35364845    -0.22100
C1360       C  0.53516098  0.66195497  0.32572085     0.20800
F1361       F  0.56347994  0.67353180  0.31555706    -0.12100
F1362       F  0.51566413  0.65013573  0.28125773    -0.14400
F1363       F  0.49585046  0.64577023  0.39050900    -0.14400
F1364       F  0.94652129  0.61253499  0.35888398    -0.12100
C1365       C  0.62990063  0.58144035  0.33251042     0.25900
C1366       C  0.65555718  0.59942916  0.31643408    -0.22200
C1367       C  0.67225813  0.63071316  0.32158649     0.20800
C1368       C  0.66275390  0.64378338  0.34094788     0.25900
C1369       C  0.63657419  0.62612616  0.35622498    -0.22100
C1370       C  0.62063494  0.59467238  0.35235717     0.20800
F1371       F  0.59513223  0.57694262  0.36665633    -0.12100
F1372       F  0.61314530  0.55123588  0.32846262    -0.14400
F1373       F  0.67917170  0.67410928  0.34450546    -0.14400
F1374       F  0.69746575  0.64921027  0.30722286    -0.12100
C1375       C  0.81726578  0.59131901  0.23947053     0.25900
C1376       C  0.82396869  0.58180939  0.26363503    -0.22200
C1377       C  0.80325992  0.57281814  0.28498994     0.20800
C1378       C  0.77555251  0.57186207  0.28169220     0.25900
C1379       C  0.76835461  0.58055429  0.25713442    -0.22100
C1380       C  0.78991937  0.59095882  0.23629140     0.20800
F1381       F  0.78406672  0.59957522  0.21230974    -0.12100
F1382       F  0.83728726  0.60089315  0.21880527    -0.14400
F1383       F  0.75566110  0.56210922  0.30245727    -0.14400
F1384       F  0.80916246  0.56348031  0.30857575    -0.12100
C1385       C  0.64326198  0.96360560  0.14905134     0.25900
C1386       C  0.61158175  0.94651676  0.14561288    -0.22200
C1387       C  0.59320858  0.94888494  0.16544939     0.20800
C1388       C  0.60624639  0.96897088  0.18725743     0.25900
C1389       C  0.63792781  0.98724420  0.18964611    -0.22100
C1390       C  0.65615416  0.98353053  0.17068236     0.20800
F1391       F  0.68716522  0.49629466  0.18054226    -0.12100
F1392       F  0.66216821  0.96182732  0.13102703    -0.14400
F1393       F  0.58780117  0.97162449  0.20520002    -0.14400
F1394       F  0.56260781  0.93258473  0.16332875    -0.12100
C1395       C  0.63282085  0.66142378  0.02224942     0.25900
C1396       C  0.60281361  0.64203543  0.03071654    -0.22200
C1397       C  0.58542376  0.61441645  0.01710197     0.20800
C1398       C  0.59829911  0.60583642  0.99643545     0.25900
C1399       C  0.62881711  0.62468506  0.98903759    -0.22100
C1400       C  0.64562757  0.65282590  0.00183962     0.20800
F1401       F  0.67479905  0.67214346  0.99476712    -0.12100
F1402       F  0.65014564  0.68881320  0.03395081    -0.14400
F1403       F  0.58138251  0.57839761  0.98474192    -0.14400
F1404       F  0.55643296  0.59505437  0.02460271    -0.12100
C1405       C  0.58552005  0.79620485  0.06129929     0.25900
C1406       C  0.58304975  0.81217437  0.08322505    -0.22200
C1407       C  0.58031548  0.80025257  0.10927397     0.20800
C1408       C  0.57968713  0.77294415  0.11326739     0.25900
C1409       C  0.58123822  0.75654438  0.09128909    -0.22100
C1410       C  0.58422408  0.76854268  0.06525330     0.20800
F1411       F  0.58603956  0.75354793  0.04353447    -0.12100
F1412       F  0.58816383  0.80681041  0.03585453    -0.14400
F1413       F  0.57637995  0.76198744  0.13864445    -0.14400
F1414       F  0.57831045  0.81508117  0.13103000    -0.12100
C1415       C  0.65359106  0.65758500  0.16109305     0.25900
C1416       C  0.62326453  0.64989993  0.16506523    -0.22200
C1417       C  0.60702204  0.63041081  0.18639403     0.20800
C1418       C  0.61983520  0.61718948  0.20198180     0.25900
C1419       C  0.64931997  0.62296874  0.19675820    -0.22100
C1420       C  0.66654258  0.64431738  0.17687439     0.20800
F1421       F  0.69540174  0.65133787  0.17180526    -0.12100
F1422       F  0.67022904  0.67662899  0.14100929    -0.14400
F1423       F  0.60288243  0.59812019  0.22196058    -0.14400
F1424       F  0.57814797  0.62321001  0.19177053    -0.12100
C1425       C  0.94907030  0.61767870  0.17398961     0.25900
C1426       C  0.94465474  0.59160630  0.18745172    -0.22200
C1427       C  0.95852355  0.57616676  0.17682042     0.20800
C1428       C  0.97836044  0.58798375  0.15484696     0.25900
C1429       C  0.98481228  0.61551066  0.14311466    -0.22100
C1430       C  0.96901301  0.62952202  0.15221534     0.20800
F1431       F  0.47159897  0.65101487  0.13888678    -0.12100
F1432       F  0.93515632  0.63264879  0.18259403    -0.14400
F1433       F  0.99331857  0.57388198  0.14669328    -0.14400
F1434       F  0.95466230  0.55076364  0.18880139    -0.12100
C1435       C  0.96097806  0.87248467  0.99655390     0.25900
C1436       C  0.94617100  0.84353508  0.98480324    -0.22200
C1437       C  0.95281000  0.82186526  0.99490779     0.20800
C1438       C  0.97506627  0.82951809  0.01468073     0.25900
C1439       C  0.99082598  0.85879119  0.02549084    -0.22100
C1440       C  0.98289931  0.87994053  0.01677217     0.20800
F1441       F  0.49492066  0.90770485  0.02975108    -0.12100
F1442       F  0.95555586  0.89419607  0.98751463    -0.14400
F1443       F  0.98189756  0.80840533  0.02261346    -0.14400
F1444       F  0.93886603  0.79345847  0.98475090    -0.12100
C1445       C  0.81494498  0.70961997  0.90988631     0.25900
C1446       C  0.81473764  0.73688926  0.91132131    -0.22200
C1447       C  0.78680888  0.73545558  0.91539533     0.20800
C1448       C  0.76000207  0.70763642  0.91838296     0.25900
C1449       C  0.76043101  0.68050501  0.91788427    -0.22100
C1450       C  0.78818279  0.68182070  0.91341812     0.20800
F1451       F  0.78940352  0.65610847  0.91217127    -0.12100
F1452       F  0.84117100  0.70976208  0.90565441    -0.14400
F1453       F  0.73371795  0.70737765  0.92269596    -0.14400
F1454       F  0.78530120  0.76101883  0.91649432    -0.12100
C1455       C  0.98059527  0.83275084  0.83850385     0.25900
C1456       C  0.98188566  0.84391772  0.86459792    -0.22200
C1457       C  0.51118770  0.86595979  0.87565653     0.20800
C1458       C  0.53725775  0.87771302  0.85987035     0.25900
C1459       C  0.53575810  0.86752014  0.83340482    -0.22100
C1460       C  0.50809741  0.84366572  0.82372469     0.20800
F1461       F  0.50572354  0.83352239  0.79811468    -0.12100
F1462       F  0.95364314  0.81249141  0.82731647    -0.14400
F1463       F  0.56380191  0.90004430  0.87010047    -0.14400
F1464       F  0.51346255  0.87729479  0.90077329    -0.12100
C1465       C  0.66098328  0.52352736  0.82066026     0.25900
C1466       C  0.62990499  0.50378471  0.81588366    -0.21000
C1467       C  0.60886198  0.50787359  0.83079277     0.20800
C1468       C  0.61857540  0.52991690  0.85096615     0.25900
C1469       C  0.64955393  0.54815727  0.85705490    -0.22100
C1470       C  0.67066309  0.54527948  0.84108127     0.20800
F1471       F  0.70080288  0.56270120  0.84590519    -0.12100
F1472       F  0.68215663  0.52060939  0.80678807    -0.14400
F1473       F  0.59740258  0.53184605  0.86578556    -0.14400
F1474       F  0.57867186  0.48952074  0.82686002    -0.12100
C1475       C  0.85308309  0.88276212  0.85598712     0.25900
C1476       C  0.87903514  0.88027196  0.85301811    -0.22200
C1477       C  0.89694973  0.89251050  0.82982973     0.20800
C1478       C  0.88829788  0.90545404  0.80947245     0.25900
C1479       C  0.86109000  0.90574658  0.81144910    -0.22100
C1480       C  0.84396324  0.89499101  0.83521647     0.20800
F1481       F  0.81794580  0.89561275  0.83803824    -0.12100
F1482       F  0.83543337  0.87155399  0.87815926    -0.14400
F1483       F  0.90544753  0.91564831  0.78690157    -0.14400
F1484       F  0.92251360  0.89114346  0.82644196    -0.12100
C1485       C  0.72709239  0.91473368  0.77606819     0.25900
C1486       C  0.73635315  0.91252302  0.74999580    -0.22200
C1487       C  0.71741661  0.90912322  0.72810435     0.20800
C1488       C  0.69027541  0.90901795  0.73215425     0.25900
C1489       C  0.68115974  0.91160109  0.75825987    -0.22100
C1490       C  0.69971433  0.91399387  0.78019373     0.20800
F1491       F  0.69198458  0.91676594  0.80568518    -0.12100
F1492       F  0.74454460  0.91751242  0.79769620    -0.14400
F1493       F  0.67300553  0.90650845  0.71047251    -0.14400
F1494       F  0.72573755  0.90711470  0.70262911    -0.12100
C1495       C  0.84266376  0.81962351  0.67382512     0.25900
C1496       C  0.85159738  0.83047870  0.64747221    -0.22200
C1497       C  0.84459085  0.85182977  0.63743970     0.20800
C1498       C  0.83236666  0.86467766  0.65424789     0.25900
C1499       C  0.82692779  0.85655618  0.68156355    -0.22100
C1500       C  0.83044880  0.83259001  0.69074640     0.20800
F1501       F  0.82372889  0.82285244  0.71655298    -0.12100
F1502       F  0.84797204  0.79824667  0.68398020    -0.14400
F1503       F  0.82834564  0.88693455  0.64418582    -0.14400
F1504       F  0.85139864  0.86183977  0.61170276    -0.12100
C1505       C  0.52135784  0.89055920  0.66008651     0.25900
C1506       C  0.49269560  0.86522621  0.66554195    -0.22200
C1507       C  0.48641228  0.85408109  0.69207442     0.20800
C1508       C  0.50815243  0.86728884  0.71231898     0.25900
C1509       C  0.53707223  0.89204139  0.70681954    -0.22100
C1510       C  0.54328625  0.90389131  0.68056070     0.20800
F1511       F  0.57081651  0.92784322  0.67448873    -0.12100
F1512       F  0.52831274  0.90238233  0.63495374    -0.14400
F1513       F  0.50062129  0.85566123  0.73752440    -0.14400
F1514       F  0.45918446  0.82993276  0.69865694    -0.12100
C1515       C  0.90741210  0.51462367  0.68112572     0.25900
C1516       C  0.88156951  0.50998023  0.69529486    -0.22200
C1517       C  0.86951631  0.52854912  0.68890225     0.20800
C1518       C  0.88160074  0.54948132  0.66771869     0.25900
C1519       C  0.90621787  0.55263704  0.65238646    -0.22100
C1520       C  0.91946894  0.53551230  0.65997611     0.20800
F1521       F  0.94316462  0.53763579  0.64596362    -0.12100
F1522       F  0.92037380  0.49788599  0.68679780    -0.14400
F1523       F  0.86834923  0.56588491  0.66166804    -0.14400
F1524       F  0.84195151  0.01980961  0.69690905    -0.12100
C1525       C  0.51662128  0.60855474  0.51072115     0.25900
C1526       C  0.51221598  0.62939028  0.52542353    -0.22200
C1527       C  0.53086756  0.66028768  0.51985850     0.20800
C1528       C  0.55221775  0.66996134  0.49899888     0.25900
C1529       C  0.55572869  0.64895498  0.48349050    -0.22100
C1530       C  0.53830328  0.61821434  0.49021822     0.20800
F1531       F  0.54079579  0.59716428  0.47582885    -0.12100
F1532       F  0.00803289  0.58146408  0.52601072    -0.14400
F1533       F  0.56868752  0.69986716  0.49340608    -0.14400
F1534       F  0.52691508  0.68103635  0.53324397    -0.12100
C1535       C  0.89482391  0.68023269  0.58586276     0.25900
C1536       C  0.92237015  0.68129083  0.58116368    -0.22200
C1537       C  0.94907525  0.70959887  0.57981531     0.20800
C1538       C  0.94832434  0.73624337  0.58350147     0.25900
C1539       C  0.92083157  0.73526098  0.58904754    -0.22100
C1540       C  0.89407038  0.70682655  0.59007525     0.20800
F1541       F  0.86705275  0.70458485  0.59543853    -0.12100
F1542       F  0.86866815  0.65331495  0.58740844    -0.14400
F1543       F  0.97471388  0.76297646  0.58196796    -0.14400
F1544       F  0.97598853  0.71153991  0.57448394    -0.12100
C1545       C  0.83697531  0.94358087  0.33728467     0.25900
C1546       C  0.85838184  0.94296970  0.35472197    -0.22200
C1547       C  0.88930199  0.96123551  0.34854563     0.20800
C1548       C  0.89862490  0.98132279  0.32681301     0.25900
C1549       C  0.87727187  0.98369621  0.31064243    -0.22100
C1550       C  0.84628772  0.96358469  0.31546876     0.20800
F1551       F  0.82324104  0.46756935  0.30383839    -0.12100
F1552       F  0.80688178  0.92569789  0.34195602    -0.14400
F1553       F  0.92874197  0.99963480  0.32259314    -0.14400
F1554       F  0.91077035  0.96131471  0.36463964    -0.12100
C1555       C  0.83936350  0.97483403  0.50835920     0.25900
C1556       C  0.84829787  0.97863124  0.48122247    -0.22200
C1557       C  0.86776739  0.00800389  0.47159570     0.20800
C1558       C  0.87031827  0.52842678  0.49172966     0.25900
C1559       C  0.86841218  0.52478966  0.51987040    -0.22100
C1560       C  0.85230119  0.49526875  0.53043437     0.20800
F1561       F  0.84959580  0.49049815  0.55740320    -0.12100
F1562       F  0.82058015  0.94693310  0.51846689    -0.14400
F1563       F  0.88502246  0.55629828  0.48055015    -0.14400
F1564       F  0.87628514  0.01273884  0.44537876    -0.12100
C1565       C  0.89643851  0.89248962  0.51076191     0.25900
C1566       C  0.88324823  0.87482651  0.48763599    -0.22200
C1567       C  0.88297324  0.84746335  0.48496745     0.20800
C1568       C  0.89394671  0.83713760  0.50586076     0.25900
C1569       C  0.90614108  0.85440033  0.52942969    -0.22100
C1570       C  0.90790911  0.88252024  0.53129788     0.20800
F1571       F  0.91865747  0.89945943  0.55395344    -0.12100
F1572       F  0.89740290  0.91917467  0.51391344    -0.14400
F1573       F  0.89187766  0.80989056  0.50336088    -0.14400
F1574       F  0.87028967  0.82978203  0.46298778    -0.12100
C1575       C  0.71621119  0.76113265  0.42260078     0.25900
C1576       C  0.68839473  0.76043522  0.42253891    -0.22200
C1577       C  0.68858091  0.78769372  0.42608025     0.20800
C1578       C  0.71596535  0.81504273  0.42902939     0.25900
C1579       C  0.74383017  0.81582032  0.42808038    -0.22100
C1580       C  0.74352579  0.78843334  0.42512792     0.20800
F1581       F  0.76974255  0.78790226  0.42475999    -0.12100
F1582       F  0.71717762  0.73542541  0.41948921    -0.14400
F1583       F  0.71512329  0.84079081  0.43232483    -0.14400
F1584       F  0.66222423  0.78791780  0.42692633    -0.12100
loop_ 
_geom_bond_atom_site_label_1 
_geom_bond_atom_site_label_2 
_geom_bond_distance 
_geom_bond_site_symmetry_2 
_ccdc_geom_bond_type 
O1            C4   1.268       .  A
O1           Cd6   2.508       .  S
C2           O11   1.269       .  A
C2            O7   1.264       .  A
C2          C368   1.479       .  S
O3            C9   1.262       .  A
O3           Cd6   2.434       .  S
C4           O12   1.265       .  A
C4          C391   1.494       .  S
C5           O10   1.269       .  A
C5            O8   1.266       .  A
C5          C358   1.493       .  S
Cd6          O13   2.520       .  S
Cd6          O12   2.474       .  S
Cd6          O11   2.493       .  S
Cd6           O7   2.442       .  S
Cd6          O10   2.506       .  S
Cd6           O8   2.461       .  S
C9           O13   1.269       .  A
C9          C378   1.481       .  S
O14          C17   1.269       .  A
O14         Cd19   2.517       .  S
C15          O24   1.262       .  A
C15          O20   1.267       .  A
C15         C371   1.489       .  S
O16          C22   1.264       .  A
O16         Cd19   2.473       .  S
C17          O25   1.265       .  A
C17         C348   1.490       .  S
C18          O23   1.268       .  A
C18          O21   1.264       .  A
C18         C331   1.494       .  S
Cd19         O26   2.511       .  S
Cd19         O25   2.473       .  S
Cd19         O24   2.462       .  S
Cd19         O20   2.496       .  S
Cd19         O23   2.516       .  S
Cd19         O21   2.463       .  S
C22          O26   1.265       .  A
C22        C1130   1.492       .  S
O27          C30   1.270       .  A
O27         Cd32   2.508       .  S
C28          O37   1.261       .  A
C28          O33   1.269       .  A
C28         C308   1.486       .  S
O29          C35   1.268       .  A
O29         Cd32   2.521       .  S
C30          O38   1.268       .  A
C30         C351   1.498       .  S
C31          O36   1.268       .  A
C31          O34   1.266       .  A
C31         C381   1.479       .  S
Cd32         O39   2.434       .  S
Cd32         O38   2.482       .  S
Cd32         O37   2.430       .  S
Cd32         O33   2.525       .  S
Cd32         O36   2.475       .  S
Cd32         O34   2.465       .  S
C35          O39   1.264       .  A
C35        C1110   1.482       .  S
O40          C43   1.267       .  A
O40         Cd45   2.499       .  S
C41          O50   1.264       .  A
C41          O46   1.263       .  A
C41         C311   1.486       .  S
O42          C48   1.265       .  A
O42         Cd45   2.508       .  S
C43          O51   1.266       .  A
C43         C298   1.490       .  S
C44          O49   1.265       .  A
C44          O47   1.269       .  A
C44         C291   1.496       .  S
Cd45         O52   2.521       .  S
Cd45         O51   2.479       .  S
Cd45         O50   2.485       .  S
Cd45         O46   2.488       .  S
Cd45         O49   2.502       .  S
Cd45         O47   2.514       .  S
C48          O52   1.265       .  A
C48         C724   1.501       .  S
O53          C56   1.267       .  A
O53         Cd58   2.496       .  S
C54          O63   1.263       .  A
C54          O59   1.266       .  A
C54         C271   1.485       .  S
O55          C61   1.263       .  A
O55         Cd58   2.478       .  S
C56          O64   1.265       .  A
C56         C301   1.487       .  S
C57          O62   1.270       .  A
C57          O60   1.264       .  A
C57         C321   1.492       .  S
Cd58         O65   2.491       .  S
Cd58         O64   2.484       .  S
Cd58         O63   2.455       .  S
Cd58         O59   2.481       .  S
Cd58         O62   2.523       .  S
Cd58         O60   2.433       .  S
C61          O65   1.266       .  A
C61         C674   1.491       .  S
O66          C69   1.267       .  A
O66         Cd71   2.505       .  S
C67          O76   1.265       .  A
C67          O72   1.269       .  A
C67         C268   1.482       .  S
O68          C74   1.270       .  A
O68         Cd71   2.553       .  S
C69          O77   1.267       .  A
C69         C258   1.492       .  S
C70          O75   1.269       .  A
C70          O73   1.264       .  A
C70         C248   1.496       .  S
Cd71         O78   2.467       .  S
Cd71         O77   2.482       .  S
Cd71         O76   2.442       .  S
Cd71         O72   2.475       .  S
Cd71         O75   2.517       .  S
Cd71         O73   2.478       .  S
C74          O78   1.262       .  A
C74         C288   1.496       .  S
O79          C82   1.270       .  A
O79         Cd84   2.474       .  S
C80          O89   1.262       .  A
C80          O85   1.270       .  A
C80         C228   1.490       .  S
O81          C87   1.269       .  A
O81         Cd84   2.525       .  S
C82          O90   1.269       .  A
C82         C221   1.488       .  S
C83          O88   1.272       .  A
C83          O86   1.265       .  A
C83         C208   1.491       .  S
Cd84         O91   2.445       .  S
Cd84         O90   2.474       .  S
Cd84         O89   2.415       .  S
Cd84         O85   2.524       .  S
Cd84         O88   2.517       .  S
Cd84         O86   2.413       .  S
C87          O91   1.264       .  A
C87        C1033   1.489   1_455  S
O92          C95   1.269       .  A
O92         Cd97   2.473       .  S
C93         O102   1.264       .  A
C93          O98   1.270       .  A
C93         C231   1.480       .  S
O94         C100   1.273       .  A
O94         Cd97   2.538       .  S
C95         O103   1.268       .  A
C95         C191   1.489       .  S
C96         O101   1.273       .  A
C96          O99   1.264       .  A
C96         C178   1.495       .  S
Cd97        O104   2.435       .  S
Cd97        O103   2.480       .  S
Cd97        O102   2.411       .  S
Cd97         O98   2.508       .  S
Cd97        O101   2.537       .  S
Cd97         O99   2.420       .  S
C100        O104   1.265       .  A
C100        C597   1.495   1_545  S
O105        C108   1.266       .  A
O105       Cd110   2.503       .  S
C106        O115   1.263       .  A
C106        O111   1.266       .  A
C106        C168   1.481       .  S
O107        C113   1.262       .  A
O107       Cd110   2.484       .  S
C108        O116   1.265       .  A
C108        C188   1.483       .  S
C109        O114   1.272       .  A
C109        O112   1.264       .  A
C109        C238   1.496       .  S
Cd110       O117   2.506       .  S
Cd110       O116   2.471       .  S
Cd110       O115   2.459       .  S
Cd110       O111   2.475       .  S
Cd110       O114   2.528       .  S
Cd110       O112   2.433       .  S
C113        O117   1.266       .  A
C113        C757   1.494   1_545  S
O118        C121   1.268       .  A
O118       Cd123   2.486       .  S
C119        O128   1.264       .  A
C119        O124   1.269       .  A
C119        C171   1.480       .  S
O120        C126   1.264       .  A
O120       Cd123   2.423       .  S
C121        O129   1.267       .  A
C121        C388   1.491       .  S
C122        O127   1.272       .  A
C122        O125   1.265       .  A
C122        C341   1.495       .  S
Cd123       O130   2.537       .  S
Cd123       O129   2.482       .  S
Cd123       O128   2.432       .  S
Cd123       O124   2.501       .  S
Cd123       O127   2.531       .  S
Cd123       O125   2.434       .  S
C126        O130   1.272       .  A
C126        C181   1.494       .  S
O131        C134   1.266       .  A
O131       Cd136   2.518       .  S
C132        O141   1.266       .  A
C132        O137   1.264       .  A
C132        C161   1.489       .  S
O133        C139   1.263       .  A
O133       Cd136   2.474       .  S
C134        O142   1.264       .  A
C134        C218   1.485       .  S
C135        O140   1.270       .  A
C135        O138   1.265       .  A
C135        C198   1.496       .  S
Cd136       O143   2.517       .  S
Cd136       O142   2.466       .  S
Cd136       O141   2.472       .  S
Cd136       O137   2.481       .  S
Cd136       O140   2.523       .  S
Cd136       O138   2.454       .  S
C139        O143   1.266       .  A
C139       C1043   1.495       .  S
O144        C147   1.271       .  A
O144       Cd149   2.510       .  S
C145        O154   1.261       .  A
C145        O150   1.272       .  A
C145        C158   1.494       .  S
O146        C152   1.269       .  A
O146       Cd149   2.501       .  S
C147        O155   1.267       .  A
C147        C261   1.493       .  S
C148        O153   1.269       .  A
C148        O151   1.266       .  A
C148        C281   1.488       .  S
Cd149       O156   2.436       .  S
Cd149       O155   2.465       .  S
Cd149       O154   2.407       .  S
Cd149       O150   2.551       .  S
Cd149       O153   2.495       .  S
Cd149       O151   2.446       .  S
C152        O156   1.266       .  A
C152        C211   1.479       .  S
C157        C158   1.412   1_565  A
C157        C558   1.394       .  A
C157        F164   1.358   1_565  S
C158        C555   1.412       .  A
C159        C160   1.404       .  A
C159        C554   1.406   1_554  A
C159        F562   1.358       .  S
C160        C161   1.412       .  A
C160        F165   1.358       .  S
C161        C162   1.408   1_554  A
C162        C553   1.397       .  A
C162        F163   1.358       .  S
F166        C555   1.357       .  S
C167        C172   1.403       .  A
C167        C960   1.410   1_455  A
C167        F174   1.358       .  S
C168        C169   1.407       .  A
C168        C959   1.410       .  A
C169        C962   1.397       .  A
C169        F176   1.358       .  S
C170        C171   1.406   1_655  A
C170        C961   1.397       .  A
C170        F175   1.358       .  S
C171        C172   1.406       .  A
C172        F173   1.358       .  S
C177        C178   1.410       .  A
C177        C182   1.410       .  A
C177        F184   1.357       .  S
C178        C179   1.411       .  A
C179        C180   1.396       .  A
C179        F186   1.359       .  S
C180        C181   1.409       .  A
C180        F185   1.359       .  S
C181        C182   1.411       .  A
C182        F183   1.357       .  S
C187        C188   1.406       .  A
C187        C192   1.401       .  A
C187        F194   1.358       .  S
C188        C189   1.407       .  A
C189        C190   1.404       .  A
C189        F196   1.358       .  S
C190        C191   1.411       .  A
C190        F195   1.358       .  S
C191        C192   1.409       .  A
C192        F193   1.358       .  S
C197        C198   1.411       .  A
C197        C202   1.399       .  A
C197        F204   1.358       .  S
C198        C199   1.412       .  A
C199        C200   1.409       .  A
C199        F206   1.357       .  S
C200        C201   1.408       .  A
C200        F205   1.357       .  S
C201        C496   1.488       .  S
C201        C202   1.406       .  A
C202        F599   1.358       .  S
F203        C598   1.358       .  S
C207        C208   1.412       .  A
C207        C212   1.395   1_554  A
C207        F214   1.358       .  S
C208        C209   1.411       .  A
C209        C210   1.407   1_554  A
C209        F216   1.358       .  S
C210        C211   1.407       .  A
C210        F215   1.358       .  S
C211        C212   1.402       .  A
C212        F213   1.358       .  S
C217        C218   1.408       .  A
C217        C222   1.405       .  A
C217        F224   1.358       .  S
C218        C219   1.407       .  A
C219        C220   1.400       .  A
C219        F226   1.358       .  S
C220        C221   1.407       .  A
C220        F225   1.358       .  S
C221        C222   1.410       .  A
C222        F223   1.358       .  S
C227        C228   1.411       .  A
C227        C232   1.407       .  A
C227        F234   1.357       .  S
C228        C229   1.411       .  A
C229        C230   1.393       .  A
C229        F236   1.358       .  S
C230        C231   1.404       .  A
C230        F235   1.359       .  S
C231        C232   1.407       .  A
C232        F233   1.358       .  S
C237        C238   1.412       .  A
C237        C242   1.398       .  A
C237        F244   1.358       .  S
C238        C239   1.411       .  A
C239        C240   1.408       .  A
C239        F246   1.357       .  S
C240        C241   1.411       .  A
C240        F245   1.357       .  S
C241        C879   1.491       .  S
C241        C242   1.407       .  A
C242       F1035   1.358       .  S
F243       C1034   1.358       .  S
C247        C248   1.409       .  A
C247        C252   1.404   1_556  A
C247        F254   1.358       .  S
C248        C249   1.411   1_556  A
C249        C250   1.405       .  A
C249        F256   1.358       .  S
C250        C251   1.410       .  A
C250        F255   1.358       .  S
C251        C931   1.497       .  S
C251        C252   1.412       .  A
C252       F1045   1.358       .  S
F253       C1044   1.358   1_455  S
C257        C258   1.410       .  A
C257        C262   1.407       .  A
C257        F264   1.358       .  S
C258        C259   1.408       .  A
C259        C260   1.402       .  A
C259        F266   1.358       .  S
C260        C261   1.410       .  A
C260        F265   1.358       .  S
C261        C262   1.409       .  A
C262        F263   1.357       .  S
C267        C268   1.406       .  A
C267       C1064   1.399       .  A
C267        F274   1.358       .  S
C268       C1061   1.409       .  A
C269        C270   1.399       .  A
C269       C1060   1.408   1_455  A
C269        F276   1.358       .  S
C270        C271   1.409       .  A
C270        F275   1.358       .  S
C271        C272   1.410       .  A
C272       C1059   1.399   1_455  A
C272        F273   1.358   1_455  S
C277        C278   1.409       .  A
C277        C282   1.399       .  A
C277        F284   1.358       .  S
C278        C457   1.491   1_545  S
C278        C279   1.411       .  A
C279        C280   1.405       .  A
C279        F286   1.358       .  S
C280        C281   1.409       .  A
C280        F285   1.358       .  S
C281        C282   1.407       .  A
C282        F283   1.358       .  S
C287        C288   1.409       .  A
C287        C292   1.409       .  A
C287        F294   1.358       .  S
C288        C289   1.410       .  A
C289        C290   1.403       .  A
C289        F296   1.358       .  S
C290        C291   1.407       .  A
C290        F295   1.358       .  S
C291        C292   1.412       .  A
C292        F293   1.358       .  S
C297        C298   1.409       .  A
C297        C302   1.402       .  A
C297        F304   1.358       .  S
C298        C299   1.410       .  A
C299        C300   1.404       .  A
C299        F306   1.358       .  S
C300        C301   1.408       .  A
C300        F305   1.358       .  S
C301        C302   1.407       .  A
C302        F303   1.358       .  S
C307        C308   1.407       .  A
C307        C312   1.404       .  A
C307        F314   1.357       .  S
C308        C309   1.410       .  A
C309        C310   1.398       .  A
C309        F316   1.359       .  S
C310        C311   1.408       .  A
C310        F315   1.358       .  S
C311        C312   1.409       .  A
C312        F313   1.357       .  S
C317        C318   1.408   1_455  A
C317        C322   1.409       .  A
C317        F324   1.358       .  S
C318        C827   1.483       .  S
C318        C319   1.403   1_655  A
C319        C320   1.395       .  A
C319        F326   1.358   1_455  S
C320        C321   1.411       .  A
C320        F325   1.358       .  S
C321        C322   1.412       .  A
C322        F323   1.358       .  S
C327        C328   1.411       .  A
C327        C332   1.405       .  A
C327        F334   1.358   1_545  S
C328        C444   1.495   1_545  S
C328        C329   1.410       .  A
C329        C330   1.401       .  A
C329        F732   1.358       .  S
C330        C331   1.410       .  A
C330        F335   1.358       .  S
C331        C332   1.410       .  A
C332        F333   1.357       .  S
F336        C725   1.358       .  S
C337        C338   1.412       .  A
C337        C342   1.408       .  A
C337       F1136   1.357       .  S
C338        C814   1.495   1_455  S
C338        C339   1.409       .  A
C339        C340   1.399       .  A
C339        F346   1.358       .  S
C340        C341   1.410       .  A
C340        F345   1.358       .  S
C341        C342   1.410       .  A
C342        F343   1.357       .  S
F344       C1129   1.357       .  S
C347        C348   1.407       .  A
C347        C352   1.407       .  A
C347        F354   1.357       .  S
C348        C349   1.408       .  A
C349        C350   1.403       .  A
C349        F356   1.358       .  S
C350        C351   1.412       .  A
C350        F355   1.358       .  S
C351        C352   1.412       .  A
C352        F353   1.357       .  S
C357        C358   1.409       .  A
C357        C362   1.402       .  A
C357        F364   1.358       .  S
C358        C359   1.410       .  A
C359        C360   1.406       .  A
C359        F366   1.358       .  S
C360        C361   1.413       .  A
C360        F365   1.358       .  S
C361        C509   1.496       .  S
C361        C362   1.409       .  A
C362        F759   1.357       .  S
F363        C758   1.358       .  S
C367        C368   1.405       .  A
C367        C768   1.400       .  A
C367        F374   1.358       .  S
C368        C369   1.407       .  A
C369        C766   1.401       .  A
C369        F376   1.358       .  S
C370        C371   1.408       .  A
C370        C765   1.401       .  A
C370        F375   1.358       .  S
C371        C372   1.411   1_545  A
C372        C763   1.401       .  A
C372        F373   1.358       .  S
C377        C378   1.407       .  A
C377        C382   1.398       .  A
C377        F384   1.358       .  S
C378        C379   1.407       .  A
C379        C380   1.405       .  A
C379        F386   1.357       .  S
C380        C381   1.407       .  A
C380        F385   1.357       .  S
C381        C382   1.406       .  A
C382        F383   1.358       .  S
C387        C388   1.409       .  A
C387        C392   1.402       .  A
C387        F394   1.358       .  S
C388        C389   1.409       .  A
C389        C390   1.404       .  A
C389        F396   1.358       .  S
C390        C391   1.410       .  A
C390        F395   1.357       .  S
C391        C392   1.411       .  A
C392        F393   1.358       .  S
O397        C400   1.268       .  A
O397       Cd402   2.510       .  S
C398        O407   1.270       .  A
C398        O403   1.265       .  A
C398        C764   1.486       .  S
O399        C405   1.261       .  A
O399       Cd402   2.442       .  S
C400        O408   1.265       .  A
C400        C787   1.494       .  S
C401        O406   1.269       .  A
C401        O404   1.266       .  A
C401        C754   1.494       .  S
Cd402       O409   2.533       .  S
Cd402       O408   2.475       .  S
Cd402       O407   2.493       .  S
Cd402       O403   2.448       .  S
Cd402       O406   2.506       .  S
Cd402       O404   2.466       .  S
C405        O409   1.269       .  A
C405        C774   1.486       .  S
O410        C413   1.268       .  A
O410       Cd415   2.517       .  S
C411        O420   1.264       .  A
C411        O416   1.270       .  A
C411        C767   1.485       .  S
O412        C418   1.267       .  A
O412       Cd415   2.527       .  S
C413        O421   1.264       .  A
C413        C744   1.489       .  S
C414        O419   1.269       .  A
C414        O417   1.264       .  A
C414        C727   1.500       .  S
Cd415       O422   2.475       .  S
Cd415       O421   2.465       .  S
Cd415       O420   2.437       .  S
Cd415       O416   2.497       .  S
Cd415       O419   2.527       .  S
Cd415       O417   2.484       .  S
C418        O422   1.262       .  A
C418       C1526   1.488       .  S
O423        C426   1.269       .  A
O423       Cd428   2.503       .  S
C424        O433   1.261       .  A
C424        O429   1.269       .  A
C424        C704   1.484       .  S
O425        C431   1.269       .  A
O425       Cd428   2.535       .  S
C426        O434   1.267       .  A
C426        C747   1.495       .  S
C427        O432   1.269       .  A
C427        O430   1.267       .  A
C427        C777   1.485       .  S
Cd428       O435   2.434       .  S
Cd428       O434   2.462       .  S
Cd428       O433   2.414       .  S
Cd428       O429   2.517       .  S
Cd428       O432   2.480       .  S
Cd428       O430   2.470       .  S
C431        O435   1.263       .  A
C431       C1506   1.494       .  S
O436        C439   1.267       .  A
O436       Cd441   2.496       .  S
C437        O446   1.264       .  A
C437        O442   1.263       .  A
C437        C707   1.483       .  S
O438        C444   1.264       .  A
O438       Cd441   2.503       .  S
C439        O447   1.267       .  A
C439        C694   1.486       .  S
C440        O445   1.265       .  A
C440        O443   1.267       .  A
C440        C687   1.488       .  S
Cd441       O448   2.489       .  S
Cd441       O447   2.473       .  S
Cd441       O446   2.465       .  S
Cd441       O442   2.479       .  S
Cd441       O445   2.485       .  S
Cd441       O443   2.502       .  S
C444        O448   1.265       .  A
O449        C452   1.266       .  A
O449       Cd454   2.488       .  S
C450        O459   1.265       .  A
C450        O455   1.264       .  A
C450        C667   1.479       .  S
O451        C457   1.267       .  A
O451       Cd454   2.515       .  S
C452        O460   1.267       .  A
C452        C697   1.492       .  S
C453        O458   1.271       .  A
C453        O456   1.261       .  A
C453        C717   1.490       .  S
Cd454       O461   2.457       .  S
Cd454       O460   2.504       .  S
Cd454       O459   2.483       .  S
Cd454       O455   2.457       .  S
Cd454       O458   2.544       .  S
Cd454       O456   2.428       .  S
C457        O461   1.264       .  A
O462        C465   1.268       .  A
O462       Cd467   2.508       .  S
C463        O472   1.264       .  A
C463        O468   1.271       .  A
C463        C664   1.484       .  S
O464        C470   1.271       .  A
O464       Cd467   2.535       .  S
C465        O473   1.267       .  A
C465        C654   1.497       .  S
C466        O471   1.270       .  A
C466        O469   1.264       .  A
C466        C644   1.499       .  S
Cd467       O474   2.453       .  S
Cd467       O473   2.485       .  S
Cd467       O472   2.429       .  S
Cd467       O468   2.494       .  S
Cd467       O471   2.531       .  S
Cd467       O469   2.454       .  S
C470        O474   1.263       .  A
C470        C684   1.491       .  S
O475        C478   1.269       .  A
O475       Cd480   2.493       .  S
C476        O485   1.261       .  A
C476        O481   1.269       .  A
C476        C624   1.484       .  S
O477        C483   1.268       .  A
O477       Cd480   2.506       .  S
C478        O486   1.268       .  A
C478        C617   1.492       .  S
C479        O484   1.270       .  A
C479        O482   1.264       .  A
C479        C604   1.488       .  S
Cd480       O487   2.454       .  S
Cd480       O486   2.482       .  S
Cd480       O485   2.426       .  S
Cd480       O481   2.528       .  S
Cd480       O484   2.520       .  S
Cd480       O482   2.432       .  S
C483        O487   1.265       .  A
C483       C1429   1.485   1_455  S
O488        C491   1.270       .  A
O488       Cd493   2.487       .  S
C489        O498   1.263       .  A
C489        O494   1.271       .  A
C489        C627   1.491       .  S
O490        C496   1.272       .  A
O490       Cd493   2.533       .  S
C491        O499   1.269       .  A
C491        C587   1.491       .  S
C492        O497   1.274       .  A
C492        O495   1.265       .  A
C492        C574   1.498       .  S
Cd493       O500   2.438       .  S
Cd493       O499   2.474       .  S
Cd493       O498   2.415       .  S
Cd493       O494   2.520       .  S
Cd493       O497   2.541       .  S
Cd493       O495   2.420       .  S
C496        O500   1.264       .  A
O501        C504   1.268       .  A
O501       Cd506   2.507       .  S
C502        O511   1.263       .  A
C502        O507   1.267       .  A
C502        C564   1.484       .  S
O503        C509   1.262       .  A
O503       Cd506   2.499       .  S
C504        O512   1.265       .  A
C504        C584   1.485       .  S
C505        O510   1.271       .  A
C505        O508   1.265       .  A
C505        C634   1.493       .  S
Cd506       O513   2.506       .  S
Cd506       O512   2.471       .  S
Cd506       O511   2.456       .  S
Cd506       O507   2.490       .  S
Cd506       O510   2.519       .  S
Cd506       O508   2.450       .  S
C509        O513   1.265       .  A
O514        C517   1.268       .  A
O514       Cd519   2.498       .  S
C515        O524   1.263       .  A
C515        O520   1.267       .  A
C515        C567   1.483       .  S
O516        C522   1.263       .  A
O516       Cd519   2.437       .  S
C517        O525   1.267       .  A
C517        C784   1.493       .  S
C518        O523   1.271       .  A
C518        O521   1.266       .  A
C518        C737   1.500       .  S
Cd519       O526   2.553       .  S
Cd519       O525   2.479       .  S
Cd519       O524   2.447       .  S
Cd519       O520   2.524       .  S
Cd519       O523   2.530       .  S
Cd519       O521   2.464       .  S
C522        O526   1.271       .  A
C522        C577   1.495       .  S
O527        C530   1.270       .  A
O527       Cd532   2.500       .  S
C528        O537   1.262       .  A
C528        O533   1.270       .  A
C528        C557   1.485       .  S
O529        C535   1.269       .  A
O529       Cd532   2.513       .  S
C530        O538   1.267       .  A
C530        C614   1.490       .  S
C531        O536   1.271       .  A
C531        O534   1.265       .  A
C531        C594   1.499       .  S
Cd532       O539   2.470       .  S
Cd532       O538   2.470       .  S
Cd532       O537   2.419       .  S
Cd532       O533   2.534       .  S
Cd532       O536   2.535       .  S
Cd532       O534   2.450       .  S
C535        O539   1.265       .  A
C535       C1439   1.490   1_455  S
O540        C543   1.269       .  A
O540       Cd545   2.491       .  S
C541        O550   1.261       .  A
C541        O546   1.268       .  A
C541        C554   1.484       .  S
O542        C548   1.268       .  A
O542       Cd545   2.524       .  S
C543        O551   1.268       .  A
C543        C657   1.492       .  S
C544        O549   1.270       .  A
C544        O547   1.265       .  A
C544        C677   1.491       .  S
Cd545       O552   2.450       .  S
Cd545       O551   2.481       .  S
Cd545       O550   2.434       .  S
Cd545       O546   2.527       .  S
Cd545       O549   2.505       .  S
Cd545       O547   2.453       .  S
C548        O552   1.263       .  A
C548        C607   1.485       .  S
C553        C554   1.408       .  A
C553        F560   1.358       .  S
C555        C556   1.410   1_546  A
C556        C557   1.408       .  A
C556        F561   1.357       .  S
C557        C558   1.405   1_554  A
C558        F559   1.359       .  S
C563       C1356   1.412   1_455  A
C563        C568   1.405       .  A
C563        F570   1.358       .  S
C564       C1355   1.411       .  A
C564        C565   1.408       .  A
C565       C1358   1.399       .  A
C565        F572   1.358       .  S
C566       C1357   1.398       .  A
C566        C567   1.406   1_655  A
C566        F571   1.358       .  S
C567        C568   1.407       .  A
C568        F569   1.358       .  S
C573        C574   1.413       .  A
C573        C578   1.413       .  A
C573        F580   1.357       .  S
C574        C575   1.411       .  A
C575        C576   1.396       .  A
C575        F582   1.358       .  S
C576        C577   1.407       .  A
C576        F581   1.358       .  S
C577        C578   1.411       .  A
C578        F579   1.357       .  S
C583        C584   1.407       .  A
C583        C588   1.403       .  A
C583        F590   1.358       .  S
C584        C585   1.406       .  A
C585        C586   1.404       .  A
C585        F592   1.358       .  S
C586        C587   1.410       .  A
C586        F591   1.358       .  S
C587        C588   1.409       .  A
C588        F589   1.358       .  S
C593        C594   1.411       .  A
C593        C598   1.399       .  A
C593        F600   1.358       .  S
C594        C595   1.412       .  A
C595        C596   1.410       .  A
C595        F602   1.357       .  S
C596        C597   1.410       .  A
C596        F601   1.357       .  S
C597        C598   1.409       .  A
C603        C604   1.409       .  A
C603        C608   1.397   1_554  A
C603        F610   1.358       .  S
C604        C605   1.410       .  A
C605        C606   1.407   1_554  A
C605        F612   1.358       .  S
C606        C607   1.409       .  A
C606        F611   1.358       .  S
C607        C608   1.405       .  A
C608        F609   1.358       .  S
C613        C614   1.408       .  A
C613        C618   1.405       .  A
C613        F620   1.358       .  S
C614        C615   1.409       .  A
C615        C616   1.404       .  A
C615        F622   1.358       .  S
C616        C617   1.409       .  A
C616        F621   1.358       .  S
C617        C618   1.410       .  A
C618        F619   1.358       .  S
C623        C624   1.408       .  A
C623        C628   1.407       .  A
C623        F630   1.357       .  S
C624        C625   1.406       .  A
C625        C626   1.395       .  A
C625        F632   1.359       .  S
C626        C627   1.411       .  A
C626        F631   1.358       .  S
C627        C628   1.411       .  A
C628        F629   1.357       .  S
C633        C634   1.410       .  A
C633        C638   1.400       .  A
C633        F640   1.358       .  S
C634        C635   1.410       .  A
C635        C636   1.406       .  A
C635        F642   1.357       .  S
C636        C637   1.411       .  A
C636        F641   1.358       .  S
C637       C1275   1.491       .  S
C637        C638   1.408       .  A
C638       F1431   1.358       .  S
F639       C1430   1.358       .  S
C643        C644   1.411       .  A
C643        C648   1.408   1_556  A
C643        F650   1.357       .  S
C644        C645   1.413       .  A
C645        C646   1.401   1_556  A
C645        F652   1.358       .  S
C646        C647   1.407       .  A
C646        F651   1.358       .  S
C647       C1327   1.492       .  S
C647        C648   1.410       .  A
C648       F1441   1.358       .  S
F649       C1440   1.358       .  S
C653        C654   1.411       .  A
C653        C658   1.405       .  A
C653        F660   1.357       .  S
C654        C655   1.411       .  A
C655        C656   1.403       .  A
C655        F662   1.358       .  S
C656        C657   1.408       .  A
C656        F661   1.358       .  S
C657        C658   1.408       .  A
C658        F659   1.358       .  S
C663        C664   1.408       .  A
C663       C1460   1.401       .  A
C663        F670   1.358       .  S
C664       C1457   1.410       .  A
C665       C1456   1.410   1_455  A
C665        C666   1.398       .  A
C665        F672   1.358       .  S
C666        C667   1.405       .  A
C666        F671   1.358       .  S
C667        C668   1.408       .  A
C668       C1455   1.401   1_455  A
C668        F669   1.358       .  S
C673        C674   1.409       .  A
C673        C678   1.401       .  A
C673        F680   1.358       .  S
C674        C675   1.411       .  A
C675        C676   1.404       .  A
C675        F682   1.358       .  S
C676        C677   1.409       .  A
C676        F681   1.358       .  S
C677        C678   1.410       .  A
C678        F679   1.358       .  S
C683        C684   1.408       .  A
C683        C688   1.406       .  A
C683        F690   1.357       .  S
C684        C685   1.410       .  A
C685        C686   1.402       .  A
C685        F692   1.358       .  S
C686        C687   1.406       .  A
C686        F691   1.358       .  S
C687        C688   1.409       .  A
C688        F689   1.358       .  S
C693        C694   1.406       .  A
C693        C698   1.402       .  A
C693        F700   1.358       .  S
C694        C695   1.408       .  A
C695        C696   1.406       .  A
C695        F702   1.358       .  S
C696        C697   1.410       .  A
C696        F701   1.358       .  S
C697        C698   1.410       .  A
C698        F699   1.357       .  S
C703        C704   1.408       .  A
C703        C708   1.403       .  A
C703        F710   1.358       .  S
C704        C705   1.410       .  A
C705        C706   1.395       .  A
C705        F712   1.358       .  S
C706        C707   1.407       .  A
C706        F711   1.358       .  S
C707        C708   1.409       .  A
C708        F709   1.358       .  S
C713        C714   1.412   1_455  A
C713        C718   1.410       .  A
C713        F720   1.357       .  S
C714       C1223   1.496       .  S
C714        C715   1.411       .  A
C715        C716   1.396   1_655  A
C715        F722   1.358       .  S
C716        C717   1.408       .  A
C716        F721   1.359   1_455  S
C717        C718   1.408       .  A
C718        F719   1.357       .  S
C723        C724   1.412       .  A
C723        C728   1.406       .  A
C723        F730   1.358       .  S
C724        C725   1.411       .  A
C725        C726   1.406       .  A
C726        C727   1.412       .  A
C726        F731   1.358       .  S
C727        C728   1.410       .  A
C728        F729   1.357       .  S
C733        C734   1.411       .  A
C733        C738   1.409       .  A
C733       F1532   1.357       .  S
C734       C1210   1.500   1_455  S
C734        C735   1.411       .  A
C735        C736   1.402       .  A
C735        F742   1.358       .  S
C736        C737   1.411       .  A
C736        F741   1.358       .  S
C737        C738   1.411       .  A
C738        F739   1.357       .  S
F740       C1525   1.358       .  S
C743        C744   1.408       .  A
C743        C748   1.406       .  A
C743        F750   1.358       .  S
C744        C745   1.407       .  A
C745        C746   1.400       .  A
C745        F752   1.358       .  S
C746        C747   1.411       .  A
C746        F751   1.358       .  S
C747        C748   1.412       .  A
C748        F749   1.357       .  S
C753        C754   1.410       .  A
C753        C758   1.403       .  A
C753        F760   1.358       .  S
C754        C755   1.409       .  A
C755        C756   1.404       .  A
C755        F762   1.358       .  S
C756        C757   1.412       .  A
C756        F761   1.358   1_565  S
C757        C758   1.409       .  A
C763        C764   1.407       .  A
C763        F770   1.358       .  S
C764        C765   1.409   1_565  A
C765        F772   1.358       .  S
C766        C767   1.408       .  A
C766        F771   1.358       .  S
C767        C768   1.410       .  A
C768        F769   1.358       .  S
C773        C774   1.409       .  A
C773        C778   1.400       .  A
C773        F780   1.358       .  S
C774        C775   1.408       .  A
C775        C776   1.405       .  A
C775        F782   1.357       .  S
C776        C777   1.409       .  A
C776        F781   1.358       .  S
C777        C778   1.407       .  A
C778        F779   1.358       .  S
C783        C784   1.409       .  A
C783        C788   1.402       .  A
C783        F790   1.358       .  S
C784        C785   1.410       .  A
C785        C786   1.405       .  A
C785        F792   1.357       .  S
C786        C787   1.410       .  A
C786        F791   1.357       .  S
C787        C788   1.410       .  A
C788        F789   1.358       .  S
O793        C796   1.267       .  A
O793       Cd798   2.499       .  S
C794        O803   1.269       .  A
C794        O799   1.264       .  A
C794       C1160   1.480       .  S
O795        C801   1.262       .  A
O795       Cd798   2.440       .  S
C796        O804   1.265       .  A
C796       C1183   1.492       .  S
C797        O802   1.269       .  A
C797        O800   1.265       .  A
C797       C1150   1.494       .  S
Cd798       O805   2.529       .  S
Cd798       O804   2.467       .  S
Cd798       O803   2.493       .  S
Cd798       O799   2.436       .  S
Cd798       O802   2.506       .  S
Cd798       O800   2.475       .  S
C801        O805   1.269       .  A
C801       C1170   1.484       .  S
O806        C809   1.270       .  A
O806       Cd811   2.508       .  S
C807        O816   1.262       .  A
C807        O812   1.266       .  A
C807       C1163   1.486       .  S
O808        C814   1.263       .  A
O808       Cd811   2.473       .  S
C809        O817   1.266       .  A
C809       C1140   1.490       .  S
C810        O815   1.269       .  A
C810        O813   1.264       .  A
C810       C1123   1.495       .  S
Cd811       O818   2.519       .  S
Cd811       O817   2.469       .  S
Cd811       O816   2.460       .  S
Cd811       O812   2.496       .  S
Cd811       O815   2.512       .  S
Cd811       O813   2.467       .  S
C814        O818   1.265       .  A
O819        C822   1.270       .  A
O819       Cd824   2.513       .  S
C820        O829   1.261       .  A
C820        O825   1.269       .  A
C820       C1100   1.488       .  S
O821        C827   1.268       .  A
O821       Cd824   2.526       .  S
C822        O830   1.267       .  A
C822       C1143   1.499       .  S
C823        O828   1.269       .  A
C823        O826   1.267       .  A
C823       C1173   1.483       .  S
Cd824       O831   2.434       .  S
Cd824       O830   2.484       .  S
Cd824       O829   2.432       .  S
Cd824       O825   2.532       .  S
Cd824       O828   2.477       .  S
Cd824       O826   2.475       .  S
C827        O831   1.264       .  A
O832        C835   1.267       .  A
O832       Cd837   2.489       .  S
C833        O842   1.264       .  A
C833        O838   1.263       .  A
C833       C1103   1.487       .  S
O834        C840   1.265       .  A
O834       Cd837   2.504       .  S
C835        O843   1.267       .  A
C835       C1090   1.487       .  S
C836        O841   1.265       .  A
C836        O839   1.269       .  A
C836       C1083   1.498       .  S
Cd837       O844   2.526       .  S
Cd837       O843   2.477       .  S
Cd837       O842   2.489       .  S
Cd837       O838   2.491       .  S
Cd837       O841   2.501       .  S
Cd837       O839   2.519       .  S
C840        O844   1.265       .  A
C840       C1516   1.502       .  S
O845        C848   1.267       .  A
O845       Cd850   2.491       .  S
C846        O855   1.262       .  A
C846        O851   1.266       .  A
C846       C1063   1.484       .  S
O847        C853   1.262       .  A
O847       Cd850   2.473       .  S
C848        O856   1.265       .  A
C848       C1093   1.484       .  S
C849        O854   1.270       .  A
C849        O852   1.265       .  A
C849       C1113   1.490       .  S
Cd850       O857   2.498       .  S
Cd850       O856   2.472       .  S
Cd850       O855   2.454       .  S
Cd850       O851   2.484       .  S
Cd850       O854   2.520       .  S
Cd850       O852   2.428       .  S
C853        O857   1.265       .  A
C853       C1466   1.491       .  S
O858        C861   1.267       .  A
O858       Cd863   2.505       .  S
C859        O868   1.265       .  A
C859        O864   1.269       .  A
C859       C1060   1.481       .  S
O860        C866   1.270       .  A
O860       Cd863   2.554       .  S
C861        O869   1.267       .  A
C861       C1050   1.493       .  S
C862        O867   1.270       .  A
C862        O865   1.263       .  A
C862       C1040   1.495       .  S
Cd863       O870   2.468       .  S
Cd863       O869   2.478       .  S
Cd863       O868   2.437       .  S
Cd863       O864   2.472       .  S
Cd863       O867   2.519       .  S
Cd863       O865   2.477       .  S
C866        O870   1.262       .  A
C866       C1080   1.495       .  S
O871        C874   1.271       .  A
O871       Cd876   2.477       .  S
C872        O881   1.261       .  A
C872        O877   1.270       .  A
C872       C1020   1.490       .  S
O873        C879   1.268       .  A
O873       Cd876   2.530       .  S
C874        O882   1.269       .  A
C874       C1013   1.488       .  S
C875        O880   1.272       .  A
C875        O878   1.265       .  A
C875       C1000   1.491       .  S
Cd876       O883   2.447       .  S
Cd876       O882   2.469       .  S
Cd876       O881   2.414       .  S
Cd876       O877   2.526       .  S
Cd876       O880   2.520       .  S
Cd876       O878   2.417       .  S
C879        O883   1.263       .  A
O884        C887   1.268       .  A
O884       Cd889   2.476       .  S
C885        O894   1.263       .  A
C885        O890   1.270       .  A
C885       C1023   1.479       .  S
O886        C892   1.273       .  A
O886       Cd889   2.532       .  S
C887        O895   1.268       .  A
C887        C983   1.489       .  S
C888        O893   1.273       .  A
C888        O891   1.263       .  A
C888        C970   1.493       .  S
Cd889       O896   2.430       .  S
Cd889       O895   2.486       .  S
Cd889       O894   2.416       .  S
Cd889       O890   2.512       .  S
Cd889       O893   2.538       .  S
Cd889       O891   2.410       .  S
C892        O896   1.265       .  A
C892       C1389   1.494   1_545  S
O897        C900   1.266       .  A
O897       Cd902   2.503       .  S
C898        O907   1.263       .  A
C898        O903   1.266       .  A
C898        C960   1.483       .  S
O899        C905   1.262       .  A
O899       Cd902   2.479       .  S
C900        O908   1.265       .  A
C900        C980   1.485       .  S
C901        O906   1.271       .  A
C901        O904   1.264       .  A
C901       C1030   1.496       .  S
Cd902       O909   2.512       .  S
Cd902       O908   2.470       .  S
Cd902       O907   2.468       .  S
Cd902       O903   2.479       .  S
Cd902       O906   2.531       .  S
Cd902       O904   2.439       .  S
C905        O909   1.266       .  A
C905       C1549   1.494   1_545  S
O910        C913   1.268       .  A
O910       Cd915   2.485       .  S
C911        O920   1.264       .  A
C911        O916   1.269       .  A
C911        C963   1.478       .  S
O912        C918   1.263       .  A
O912       Cd915   2.410       .  S
C913        O921   1.267       .  A
C913       C1180   1.489       .  S
C914        O919   1.272       .  A
C914        O917   1.265       .  A
C914       C1133   1.492       .  S
Cd915       O922   2.540       .  S
Cd915       O921   2.471       .  S
Cd915       O920   2.426       .  S
Cd915       O916   2.490       .  S
Cd915       O919   2.517       .  S
Cd915       O917   2.434       .  S
C918        O922   1.272       .  A
C918        C973   1.492       .  S
O923        C926   1.266       .  A
O923       Cd928   2.516       .  S
C924        O933   1.265       .  A
C924        O929   1.264       .  A
C924        C953   1.488       .  S
O925        C931   1.264       .  A
O925       Cd928   2.486       .  S
C926        O934   1.264       .  A
C926       C1010   1.485       .  S
C927        O932   1.270       .  A
C927        O930   1.264       .  A
C927        C990   1.498       .  S
Cd928       O935   2.514       .  S
Cd928       O934   2.471       .  S
Cd928       O933   2.473       .  S
Cd928       O929   2.479       .  S
Cd928       O932   2.529       .  S
Cd928       O930   2.461       .  S
C931        O935   1.267       .  A
O936        C939   1.271       .  A
O936       Cd941   2.509       .  S
C937        O946   1.261       .  A
C937        O942   1.271       .  A
C937        C950   1.494       .  S
O938        C944   1.268       .  A
O938       Cd941   2.500       .  S
C939        O947   1.267       .  A
C939       C1053   1.492       .  S
C940        O945   1.268       .  A
C940        O943   1.265       .  A
C940       C1073   1.489       .  S
Cd941       O948   2.446       .  S
Cd941       O947   2.459       .  S
Cd941       O946   2.406       .  S
Cd941       O942   2.553       .  S
Cd941       O945   2.500       .  S
Cd941       O943   2.448       .  S
C944        O948   1.266       .  A
C944       C1003   1.480       .  S
C949        C950   1.412   1_565  A
C949       C1350   1.394       .  A
C949        F956   1.358   1_565  S
C950       C1347   1.412       .  A
C951       C1346   1.406   1_554  A
C951        C952   1.404       .  A
C951       F1354   1.358       .  S
C952        C953   1.412       .  A
C952        F957   1.358       .  S
C953        C954   1.408   1_554  A
C954       C1345   1.397       .  A
C954        F955   1.358       .  S
F958       C1347   1.357       .  S
C959        C964   1.401       .  A
C959        F966   1.358       .  S
C960        C961   1.407       .  A
C961        F968   1.358       .  S
C962        C963   1.406       .  A
C962        F967   1.358       .  S
C963        C964   1.406       .  A
C964        F965   1.358       .  S
C969        C970   1.411       .  A
C969        C974   1.411       .  A
C969        F976   1.357       .  S
C970        C971   1.410       .  A
C971        C972   1.393       .  A
C971        F978   1.358       .  S
C972        C973   1.409       .  A
C972        F977   1.358       .  S
C973        C974   1.411       .  A
C974        F975   1.357       .  S
C979        C980   1.406       .  A
C979        C984   1.400       .  A
C979        F986   1.358       .  S
C980        C981   1.408       .  A
C981        C982   1.405       .  A
C981        F988   1.358       .  S
C982        C983   1.410       .  A
C982        F987   1.358       .  S
C983        C984   1.408       .  A
C984        F985   1.357       .  S
C989        C990   1.412       .  A
C989        C994   1.401       .  A
C989        F996   1.358       .  S
C990        C991   1.412       .  A
C991        C992   1.409       .  A
C991        F998   1.357       .  S
C992        C993   1.408       .  A
C992        F997   1.357       .  S
C993       C1288   1.490       .  S
C993        C994   1.406       .  A
C994       F1391   1.358       .  S
F995       C1390   1.358       .  S
C999       C1000   1.412       .  A
C999       C1004   1.397   1_554  A
C999       F1006   1.358       .  S
C1000      C1001   1.411       .  A
C1001      C1002   1.407   1_554  A
C1001      F1008   1.357       .  S
C1002      C1003   1.407       .  A
C1002      F1007   1.358       .  S
C1003      C1004   1.403       .  A
C1004      F1005   1.358       .  S
C1009      C1010   1.407       .  A
C1009      C1014   1.405       .  A
C1009      F1016   1.358       .  S
C1010      C1011   1.407       .  A
C1011      C1012   1.401       .  A
C1011      F1018   1.358       .  S
C1012      C1013   1.408       .  A
C1012      F1017   1.358       .  S
C1013      C1014   1.410       .  A
C1014      F1015   1.358       .  S
C1019      C1020   1.411       .  A
C1019      C1024   1.407       .  A
C1019      F1026   1.357       .  S
C1020      C1021   1.412       .  A
C1021      C1022   1.394       .  A
C1021      F1028   1.358       .  S
C1022      C1023   1.404       .  A
C1022      F1027   1.359       .  S
C1023      C1024   1.407       .  A
C1024      F1025   1.357       .  S
C1029      C1030   1.412       .  A
C1029      C1034   1.398       .  A
C1029      F1036   1.358       .  S
C1030      C1031   1.411       .  A
C1031      C1032   1.409       .  A
C1031      F1038   1.357       .  S
C1032      C1033   1.409       .  A
C1032      F1037   1.357       .  S
C1033      C1034   1.406       .  A
C1039      C1040   1.408       .  A
C1039      C1044   1.403   1_556  A
C1039      F1046   1.357       .  S
C1040      C1041   1.412   1_556  A
C1041      C1042   1.405       .  A
C1041      F1048   1.358       .  S
C1042      C1043   1.410   1_655  A
C1042      F1047   1.358       .  S
C1043      C1044   1.411   1_455  A
C1049      C1050   1.411       .  A
C1049      C1054   1.407       .  A
C1049      F1056   1.358       .  S
C1050      C1051   1.409       .  A
C1051      C1052   1.401       .  A
C1051      F1058   1.358       .  S
C1052      C1053   1.409       .  A
C1052      F1057   1.358       .  S
C1053      C1054   1.409       .  A
C1054      F1055   1.358       .  S
C1059      C1060   1.406       .  A
C1059      F1066   1.358       .  S
C1061      C1062   1.399       .  A
C1061      F1068   1.358       .  S
C1062      C1063   1.408       .  A
C1062      F1067   1.358       .  S
C1063      C1064   1.410       .  A
C1064      F1065   1.358       .  S
C1069      C1070   1.408       .  A
C1069      C1074   1.398       .  A
C1069      F1076   1.358       .  S
C1070      C1249   1.490   1_545  S
C1070      C1071   1.410       .  A
C1071      C1072   1.406       .  A
C1071      F1078   1.358       .  S
C1072      C1073   1.410       .  A
C1072      F1077   1.358       .  S
C1073      C1074   1.408       .  A
C1074      F1075   1.358       .  S
C1079      C1080   1.408       .  A
C1079      C1084   1.409       .  A
C1079      F1086   1.358       .  S
C1080      C1081   1.410       .  A
C1081      C1082   1.404       .  A
C1081      F1088   1.358       .  S
C1082      C1083   1.408       .  A
C1082      F1087   1.358       .  S
C1083      C1084   1.413       .  A
C1084      F1085   1.358       .  S
C1089      C1090   1.409       .  A
C1089      C1094   1.402       .  A
C1089      F1096   1.358       .  S
C1090      C1091   1.409       .  A
C1091      C1092   1.402       .  A
C1091      F1098   1.358       .  S
C1092      C1093   1.408       .  A
C1092      F1097   1.358       .  S
C1093      C1094   1.407       .  A
C1094      F1095   1.358       .  S
C1099      C1100   1.408       .  A
C1099      C1104   1.405       .  A
C1099      F1106   1.357       .  S
C1100      C1101   1.410       .  A
C1101      C1102   1.398       .  A
C1101      F1108   1.358       .  S
C1102      C1103   1.407       .  A
C1102      F1107   1.358       .  S
C1103      C1104   1.410       .  A
C1104      F1105   1.358       .  S
C1109      C1110   1.408       .  A
C1109      C1114   1.409       .  A
C1109      F1116   1.358       .  S
C1110      C1111   1.403       .  A
C1111      C1112   1.394       .  A
C1111      F1118   1.358       .  S
C1112      C1113   1.410       .  A
C1112      F1117   1.358       .  S
C1113      C1114   1.412       .  A
C1114      F1115   1.358       .  S
C1119      C1120   1.411       .  A
C1119      C1124   1.404       .  A
C1119      F1126   1.358   1_545  S
C1120      C1236   1.495   1_545  S
C1120      C1121   1.410       .  A
C1121      C1122   1.403       .  A
C1121      F1524   1.358       .  S
C1122      C1123   1.411       .  A
C1122      F1127   1.358       .  S
C1123      C1124   1.409       .  A
C1124      F1125   1.357       .  S
F1128      C1517   1.358       .  S
C1129      C1130   1.411       .  A
C1129      C1134   1.407       .  A
C1130      C1131   1.409       .  A
C1131      C1132   1.399       .  A
C1131      F1138   1.358       .  S
C1132      C1133   1.410       .  A
C1132      F1137   1.358       .  S
C1133      C1134   1.409       .  A
C1134      F1135   1.357       .  S
C1139      C1140   1.407       .  A
C1139      C1144   1.407       .  A
C1139      F1146   1.358       .  S
C1140      C1141   1.407       .  A
C1141      C1142   1.403       .  A
C1141      F1148   1.358       .  S
C1142      C1143   1.412       .  A
C1142      F1147   1.358       .  S
C1143      C1144   1.412       .  A
C1144      F1145   1.357       .  S
C1149      C1150   1.410       .  A
C1149      C1154   1.404       .  A
C1149      F1156   1.358       .  S
C1150      C1151   1.409       .  A
C1151      C1152   1.404       .  A
C1151      F1158   1.358       .  S
C1152      C1153   1.412       .  A
C1152      F1157   1.358       .  S
C1153      C1301   1.497       .  S
C1153      C1154   1.410       .  A
C1154      F1551   1.358       .  S
F1155      C1550   1.358       .  S
C1159      C1160   1.405       .  A
C1159      C1560   1.402       .  A
C1159      F1166   1.358       .  S
C1160      C1161   1.406       .  A
C1161      C1558   1.400       .  A
C1161      F1168   1.358       .  S
C1162      C1557   1.401       .  A
C1162      C1163   1.408       .  A
C1162      F1167   1.358       .  S
C1163      C1164   1.410   1_545  A
C1164      C1555   1.401       .  A
C1164      F1165   1.358       .  S
C1169      C1170   1.408       .  A
C1169      C1174   1.399       .  A
C1169      F1176   1.358       .  S
C1170      C1171   1.407       .  A
C1171      C1172   1.406       .  A
C1171      F1178   1.357       .  S
C1172      C1173   1.408       .  A
C1172      F1177   1.357       .  S
C1173      C1174   1.406       .  A
C1174      F1175   1.358       .  S
C1179      C1180   1.408       .  A
C1179      C1184   1.400       .  A
C1179      F1186   1.358       .  S
C1180      C1181   1.409       .  A
C1181      C1182   1.404       .  A
C1181      F1188   1.358       .  S
C1182      C1183   1.410       .  A
C1182      F1187   1.358       .  S
C1183      C1184   1.411       .  A
C1184      F1185   1.358       .  S
O1189      C1192   1.268       .  A
O1189     Cd1194   2.501       .  S
C1190      O1199   1.269       .  A
C1190      O1195   1.265       .  A
C1190      C1556   1.485       .  S
O1191      C1197   1.262       .  A
O1191     Cd1194   2.437       .  S
C1192      O1200   1.264       .  A
C1192      C1579   1.489       .  S
C1193      O1198   1.269       .  A
C1193      O1196   1.266       .  A
C1193      C1546   1.492       .  S
Cd1194     O1201   2.532       .  S
Cd1194     O1200   2.454       .  S
Cd1194     O1199   2.485       .  S
Cd1194     O1195   2.452       .  S
Cd1194     O1198   2.493       .  S
Cd1194     O1196   2.468       .  S
C1197      O1201   1.269       .  A
C1197      C1566   1.485       .  S
O1202      C1205   1.270       .  A
O1202     Cd1207   2.510       .  S
C1203      O1212   1.261       .  A
C1203      O1208   1.266       .  A
C1203      C1559   1.490       .  S
O1204      C1210   1.262       .  A
O1204     Cd1207   2.475       .  S
C1205      O1213   1.266       .  A
C1205      C1536   1.488       .  S
C1206      O1211   1.270       .  A
C1206      O1209   1.265       .  A
C1206      C1519   1.501       .  S
Cd1207     O1214   2.541       .  S
Cd1207     O1213   2.469       .  S
Cd1207     O1212   2.469       .  S
Cd1207     O1208   2.504       .  S
Cd1207     O1211   2.518       .  S
Cd1207     O1209   2.488       .  S
C1210      O1214   1.267       .  A
O1215      C1218   1.268       .  A
O1215     Cd1220   2.494       .  S
C1216      O1225   1.262       .  A
C1216      O1221   1.269       .  A
C1216      C1496   1.486       .  S
O1217      C1223   1.270       .  A
O1217     Cd1220   2.537       .  S
C1218      O1226   1.267       .  A
C1218      C1539   1.496       .  S
C1219      O1224   1.269       .  A
C1219      O1222   1.266       .  A
C1219      C1569   1.486       .  S
Cd1220     O1227   2.436       .  S
Cd1220     O1226   2.482       .  S
Cd1220     O1225   2.425       .  S
Cd1220     O1221   2.522       .  S
Cd1220     O1224   2.479       .  S
Cd1220     O1222   2.482       .  S
C1223      O1227   1.263       .  A
O1228      C1231   1.267       .  A
O1228     Cd1233   2.484       .  S
C1229      O1238   1.264       .  A
C1229      O1234   1.263       .  A
C1229      C1499   1.486       .  S
O1230      C1236   1.264       .  A
O1230     Cd1233   2.492       .  S
C1231      O1239   1.266       .  A
C1231      C1486   1.483       .  S
C1232      O1237   1.265       .  A
C1232      O1235   1.268       .  A
C1232      C1479   1.487       .  S
Cd1233     O1240   2.498       .  S
Cd1233     O1239   2.466       .  S
Cd1233     O1238   2.469       .  S
Cd1233     O1234   2.485       .  S
Cd1233     O1237   2.481       .  S
Cd1233     O1235   2.501       .  S
C1236      O1240   1.265       .  A
O1241      C1244   1.265       .  A
O1241     Cd1246   2.475       .  S
C1242      O1251   1.265       .  A
C1242      O1247   1.264       .  A
C1242      C1459   1.479       .  S
O1243      C1249   1.268       .  A
O1243     Cd1246   2.519       .  S
C1244      O1252   1.266       .  A
C1244      C1489   1.488       .  S
C1245      O1250   1.271       .  A
C1245      O1248   1.261       .  A
C1245      C1509   1.489       .  S
Cd1246     O1253   2.447       .  S
Cd1246     O1252   2.493       .  S
Cd1246     O1251   2.483       .  S
Cd1246     O1247   2.454       .  S
Cd1246     O1250   2.540       .  S
Cd1246     O1248   2.415       .  S
C1249      O1253   1.263       .  A
O1254      C1257   1.268       .  A
O1254     Cd1259   2.500       .  S
C1255      O1264   1.264       .  A
C1255      O1260   1.271       .  A
C1255      C1456   1.483       .  S
O1256      C1262   1.271       .  A
O1256     Cd1259   2.536       .  S
C1257      O1265   1.267       .  A
C1257      C1446   1.495       .  S
C1258      O1263   1.271       .  A
C1258      O1261   1.264       .  A
C1258      C1436   1.497       .  S
Cd1259     O1266   2.447       .  S
Cd1259     O1265   2.485       .  S
Cd1259     O1264   2.431       .  S
Cd1259     O1260   2.489       .  S
Cd1259     O1263   2.524       .  S
Cd1259     O1261   2.449       .  S
C1262      O1266   1.263       .  A
C1262      C1476   1.489       .  S
O1267      C1270   1.268       .  A
O1267     Cd1272   2.500       .  S
C1268      O1277   1.261       .  A
C1268      O1273   1.266       .  A
C1268      C1416   1.489       .  S
O1269      C1275   1.268       .  A
O1269     Cd1272   2.506       .  S
C1270      O1278   1.266       .  A
C1270      C1409   1.491       .  S
C1271      O1276   1.270       .  A
C1271      O1274   1.262       .  A
C1271      C1396   1.492       .  S
Cd1272     O1279   2.462       .  S
Cd1272     O1278   2.488       .  S
Cd1272     O1277   2.445       .  S
Cd1272     O1273   2.528       .  S
Cd1272     O1276   2.534       .  S
Cd1272     O1274   2.437       .  S
C1275      O1279   1.266       .  A
O1280      C1283   1.270       .  A
O1280     Cd1285   2.479       .  S
C1281      O1290   1.263       .  A
C1281      O1286   1.271       .  A
C1281      C1419   1.489       .  S
O1282      C1288   1.271       .  A
O1282     Cd1285   2.539       .  S
C1283      O1291   1.269       .  A
C1283      C1379   1.492       .  S
C1284      O1289   1.273       .  A
C1284      O1287   1.265       .  A
C1284      C1366   1.498       .  S
Cd1285     O1292   2.454       .  S
Cd1285     O1291   2.482       .  S
Cd1285     O1290   2.416       .  S
Cd1285     O1286   2.527       .  S
Cd1285     O1289   2.539       .  S
Cd1285     O1287   2.422       .  S
C1288      O1292   1.264       .  A
O1293      C1296   1.267       .  A
O1293     Cd1298   2.507       .  S
C1294      O1303   1.263       .  A
C1294      O1299   1.266       .  A
C1294      C1356   1.488       .  S
O1295      C1301   1.263       .  A
O1295     Cd1298   2.494       .  S
C1296      O1304   1.265       .  A
C1296      C1376   1.480       .  S
C1297      O1302   1.270       .  A
C1297      O1300   1.265       .  A
C1297      C1426   1.495       .  S
Cd1298     O1305   2.509       .  S
Cd1298     O1304   2.464       .  S
Cd1298     O1303   2.482       .  S
Cd1298     O1299   2.483       .  S
Cd1298     O1302   2.518       .  S
Cd1298     O1300   2.460       .  S
C1301      O1305   1.265       .  A
O1306      C1309   1.268       .  A
O1306     Cd1311   2.488       .  S
C1307      O1316   1.262       .  A
C1307      O1312   1.267       .  A
C1307      C1359   1.476       .  S
O1308      C1314   1.264       .  A
O1308     Cd1311   2.442       .  S
C1309      O1317   1.267       .  A
C1309      C1576   1.489       .  S
C1310      O1315   1.271       .  A
C1310      O1313   1.266       .  A
C1310      C1529   1.492       .  S
Cd1311     O1318   2.542       .  S
Cd1311     O1317   2.468       .  S
Cd1311     O1316   2.445       .  S
Cd1311     O1312   2.498       .  S
Cd1311     O1315   2.495       .  S
Cd1311     O1313   2.466       .  S
C1314      O1318   1.270       .  A
C1314      C1369   1.489       .  S
O1319      C1322   1.270       .  A
O1319     Cd1324   2.505       .  S
C1320      O1329   1.262       .  A
C1320      O1325   1.270       .  A
C1320      C1349   1.485       .  S
O1321      C1327   1.269       .  A
O1321     Cd1324   2.521       .  S
C1322      O1330   1.267       .  A
C1322      C1406   1.493       .  S
C1323      O1328   1.271       .  A
C1323      O1326   1.264       .  A
C1323      C1386   1.499       .  S
Cd1324     O1331   2.469       .  S
Cd1324     O1330   2.476       .  S
Cd1324     O1329   2.423       .  S
Cd1324     O1325   2.533       .  S
Cd1324     O1328   2.539       .  S
Cd1324     O1326   2.449       .  S
C1327      O1331   1.265       .  A
O1332      C1335   1.270       .  A
O1332     Cd1337   2.486       .  S
C1333      O1342   1.261       .  A
C1333      O1338   1.268       .  A
C1333      C1346   1.484       .  S
O1334      C1340   1.268       .  A
O1334     Cd1337   2.534       .  S
C1335      O1343   1.268       .  A
C1335      C1449   1.489       .  S
C1336      O1341   1.270       .  A
C1336      O1339   1.265       .  A
C1336      C1469   1.491       .  S
Cd1337     O1344   2.457       .  S
Cd1337     O1343   2.475       .  S
Cd1337     O1342   2.427       .  S
Cd1337     O1338   2.529       .  S
Cd1337     O1341   2.503       .  S
Cd1337     O1339   2.458       .  S
C1340      O1344   1.263       .  A
C1340      C1399   1.490       .  S
C1345      C1346   1.408       .  A
C1345      F1352   1.358       .  S
C1347      C1348   1.410   1_546  A
C1348      C1349   1.408       .  A
C1348      F1353   1.357       .  S
C1349      C1350   1.405   1_554  A
C1350      F1351   1.359       .  S
C1355      C1360   1.401       .  A
C1355      F1362   1.358       .  S
C1356      C1357   1.408       .  A
C1357      F1364   1.358       .  S
C1358      C1359   1.405       .  A
C1358      F1363   1.358       .  S
C1359      C1360   1.404       .  A
C1360      F1361   1.358       .  S
C1365      C1366   1.413       .  A
C1365      C1370   1.412       .  A
C1365      F1372   1.357       .  S
C1366      C1367   1.412       .  A
C1367      C1368   1.397       .  A
C1367      F1374   1.358       .  S
C1368      C1369   1.405       .  A
C1368      F1373   1.358       .  S
C1369      C1370   1.409       .  A
C1370      F1371   1.357       .  S
C1375      C1376   1.404       .  A
C1375      C1380   1.401       .  A
C1375      F1382   1.358       .  S
C1376      C1377   1.405       .  A
C1377      C1378   1.405       .  A
C1377      F1384   1.358       .  S
C1378      C1379   1.412       .  A
C1378      F1383   1.358       .  S
C1379      C1380   1.410       .  A
C1380      F1381   1.357       .  S
C1385      C1386   1.411       .  A
C1385      C1390   1.399       .  A
C1385      F1392   1.358       .  S
C1386      C1387   1.412       .  A
C1387      C1388   1.410       .  A
C1387      F1394   1.357       .  S
C1388      C1389   1.410       .  A
C1388      F1393   1.357       .  S
C1389      C1390   1.408       .  A
C1395      C1396   1.410       .  A
C1395      C1400   1.398       .  A
C1395      F1402   1.358       .  S
C1396      C1397   1.410       .  A
C1397      C1398   1.409   1_554  A
C1397      F1404   1.358       .  S
C1398      C1399   1.410       .  A
C1398      F1403   1.357       .  S
C1399      C1400   1.407   1_556  A
C1400      F1401   1.358   1_554  S
C1405      C1406   1.409       .  A
C1405      C1410   1.405       .  A
C1405      F1412   1.358       .  S
C1406      C1407   1.410       .  A
C1407      C1408   1.404       .  A
C1407      F1414   1.358       .  S
C1408      C1409   1.408       .  A
C1408      F1413   1.358       .  S
C1409      C1410   1.409       .  A
C1410      F1411   1.358       .  S
C1415      C1416   1.411       .  A
C1415      C1420   1.407       .  A
C1415      F1422   1.357       .  S
C1416      C1417   1.408       .  A
C1417      C1418   1.395       .  A
C1417      F1424   1.358       .  S
C1418      C1419   1.409       .  A
C1418      F1423   1.358       .  S
C1419      C1420   1.409       .  A
C1420      F1421   1.357       .  S
C1425      C1426   1.412       .  A
C1425      C1430   1.401       .  A
C1425      F1432   1.358       .  S
C1426      C1427   1.411       .  A
C1427      C1428   1.406       .  A
C1427      F1434   1.357       .  S
C1428      C1429   1.408       .  A
C1428      F1433   1.358       .  S
C1429      C1430   1.405       .  A
C1435      C1436   1.411       .  A
C1435      C1440   1.407   1_556  A
C1435      F1442   1.357       .  S
C1436      C1437   1.413       .  A
C1437      C1438   1.401   1_556  A
C1437      F1444   1.358       .  S
C1438      C1439   1.406       .  A
C1438      F1443   1.358       .  S
C1439      C1440   1.409       .  A
C1445      C1446   1.411       .  A
C1445      C1450   1.405       .  A
C1445      F1452   1.357       .  S
C1446      C1447   1.411       .  A
C1447      C1448   1.403       .  A
C1447      F1454   1.358       .  S
C1448      C1449   1.408       .  A
C1448      F1453   1.358       .  S
C1449      C1450   1.407       .  A
C1450      F1451   1.358       .  S
C1455      C1456   1.407       .  A
C1455      F1462   1.358       .  S
C1457      C1458   1.398       .  A
C1457      F1464   1.358       .  S
C1458      C1459   1.404       .  A
C1458      F1463   1.358       .  S
C1459      C1460   1.408       .  A
C1460      F1461   1.358       .  S
C1465      C1466   1.409       .  A
C1465      C1470   1.402       .  A
C1465      F1472   1.358       .  S
C1466      C1467   1.411       .  A
C1467      C1468   1.403       .  A
C1467      F1474   1.358       .  S
C1468      C1469   1.408       .  A
C1468      F1473   1.358       .  S
C1469      C1470   1.410       .  A
C1470      F1471   1.358       .  S
C1475      C1476   1.408       .  A
C1475      C1480   1.406       .  A
C1475      F1482   1.357       .  S
C1476      C1477   1.410       .  A
C1477      C1478   1.401       .  A
C1477      F1484   1.358       .  S
C1478      C1479   1.406       .  A
C1478      F1483   1.358       .  S
C1479      C1480   1.409       .  A
C1480      F1481   1.358       .  S
C1485      C1486   1.406       .  A
C1485      C1490   1.400       .  A
C1485      F1492   1.358       .  S
C1486      C1487   1.408       .  A
C1487      C1488   1.403       .  A
C1487      F1494   1.358       .  S
C1488      C1489   1.409       .  A
C1488      F1493   1.358       .  S
C1489      C1490   1.410       .  A
C1490      F1491   1.358       .  S
C1495      C1496   1.408       .  A
C1495      C1500   1.404       .  A
C1495      F1502   1.357       .  S
C1496      C1497   1.409       .  A
C1497      C1498   1.396       .  A
C1497      F1504   1.358       .  S
C1498      C1499   1.407       .  A
C1498      F1503   1.358       .  S
C1499      C1500   1.410       .  A
C1500      F1501   1.358       .  S
C1505      C1506   1.412       .  A
C1505      C1510   1.409       .  A
C1505      F1512   1.357       .  S
C1506      C1507   1.410       .  A
C1507      C1508   1.395       .  A
C1507      F1514   1.358       .  S
C1508      C1509   1.409       .  A
C1508      F1513   1.359       .  S
C1509      C1510   1.408       .  A
C1510      F1511   1.357       .  S
C1515      C1516   1.411       .  A
C1515      C1520   1.405       .  A
C1515      F1522   1.357       .  S
C1516      C1517   1.412       .  A
C1517      C1518   1.407       .  A
C1518      C1519   1.413       .  A
C1518      F1523   1.358       .  S
C1519      C1520   1.409       .  A
C1520      F1521   1.357       .  S
C1525      C1526   1.408       .  A
C1525      C1530   1.402       .  A
C1526      C1527   1.408       .  A
C1527      C1528   1.405       .  A
C1527      F1534   1.358       .  S
C1528      C1529   1.412       .  A
C1528      F1533   1.358       .  S
C1529      C1530   1.408       .  A
C1530      F1531   1.357       .  S
C1535      C1536   1.405       .  A
C1535      C1540   1.405       .  A
C1535      F1542   1.357       .  S
C1536      C1537   1.408       .  A
C1537      C1538   1.403       .  A
C1537      F1544   1.358       .  S
C1538      C1539   1.412       .  A
C1538      F1543   1.358       .  S
C1539      C1540   1.412       .  A
C1540      F1541   1.357       .  S
C1545      C1546   1.410       .  A
C1545      C1550   1.403       .  A
C1545      F1552   1.358       .  S
C1546      C1547   1.408       .  A
C1547      C1548   1.403       .  A
C1547      F1554   1.358       .  S
C1548      C1549   1.411       .  A
C1548      F1553   1.358       .  S
C1549      C1550   1.410       .  A
C1555      C1556   1.407       .  A
C1555      F1562   1.358       .  S
C1556      C1557   1.409   1_565  A
C1557      F1564   1.358       .  S
C1558      C1559   1.409       .  A
C1558      F1563   1.357       .  S
C1559      C1560   1.413       .  A
C1560      F1561   1.358       .  S
C1565      C1566   1.407       .  A
C1565      C1570   1.398       .  A
C1565      F1572   1.358       .  S
C1566      C1567   1.408       .  A
C1567      C1568   1.407       .  A
C1567      F1574   1.358       .  S
C1568      C1569   1.410       .  A
C1568      F1573   1.358       .  S
C1569      C1570   1.407       .  A
C1570      F1571   1.358       .  S
C1575      C1576   1.408       .  A
C1575      C1580   1.399       .  A
C1575      F1582   1.358       .  S
C1576      C1577   1.409       .  A
C1577      C1578   1.404       .  A
C1577      F1584   1.358       .  S
C1578      C1579   1.409       .  A
C1578      F1583   1.358       .  S
C1579      C1580   1.410       .  A
C1580      F1581   1.358       .  S
