geometry optimzed in LAMMPS
_audit_creation_date              2020-12-01 
_audit_creation_method            'lammps2cif' 
_symmetry_space_group_name_H-M    'P1' 
_symmetry_Int_Tables_number       1 
_symmetry_cell_setting            triclinic 
loop_ 
_symmetry_equiv_pos_as_xyz 
  x,y,z 
_cell_length_a                    34.28021405 
_cell_length_b                    51.554767614027355 
_cell_length_c                    44.039204908633245 
_cell_angle_alpha                 90.24493600715442 
_cell_angle_beta                  89.59646061538487 
_cell_angle_gamma                 90.0662884909334 
loop_ 
_atom_site_label 
_atom_site_type_symbol 
_atom_site_fract_x 
_atom_site_fract_y 
_atom_site_fract_z 
_atom_site_charge 
O1          O  0.34847835  0.10213702  0.36215812    -0.58100
C2          C  0.43068341  0.03969717  0.35426656     0.74500
O3          O  0.31917085  0.03054984  0.40637564    -0.59300
C4          C  0.31219101  0.10313436  0.36827388     0.74500
C5          C  0.32204479  0.03905197  0.30358948     0.76900
Cd6        Cd  0.35032234  0.05421345  0.36227644     1.37500
O7          O  0.42041613  0.06338456  0.35361800    -0.58100
O8          O  0.33525990  0.06140724  0.30941012    -0.56900
C9          C  0.34371688  0.04010254  0.42491909     0.76800
O10         O  0.31958933  0.02333941  0.32574576    -0.59300
O11         O  0.40365900  0.02316480  0.35765510    -0.57800
O12         O  0.29479627  0.08169459  0.37222596    -0.57800
O13         O  0.36932005  0.05511192  0.41393284    -0.56900
O14         O  0.34699349  0.09955045  0.61708186    -0.58100
C15         C  0.43214459  0.03708843  0.62484147     0.74500
O16         O  0.32280815  0.02097389  0.65577842    -0.59300
C17         C  0.31015319  0.09973080  0.61365414     0.74500
C18         C  0.34498262  0.03812327  0.55523882     0.76900
Cd19       Cd  0.35174345  0.05162098  0.61801582     1.37500
O20         O  0.42184000  0.06080143  0.62536628    -0.58100
O21         O  0.37074017  0.05292751  0.56627870    -0.56900
C22         C  0.32782101  0.03662856  0.67789109     0.76800
O23         O  0.32063761  0.02820460  0.57387831    -0.59300
O24         O  0.40522356  0.02048591  0.62142384    -0.57800
O25         O  0.29345081  0.07783100  0.61188638    -0.57800
O26         O  0.34180580  0.05867169  0.67152648    -0.56900
O27         O  0.35104214  0.44861590  0.86678025    -0.58100
C28         C  0.43452473  0.00988915  0.85664088     0.74500
O29         O  0.32340251  0.02627364  0.82619242    -0.59300
C30         C  0.31404216  0.44777185  0.86879780     0.74500
C31         C  0.34429295  0.01444833  0.92579266     0.76900
Cd32       Cd  0.35352974  0.49667871  0.86402335     1.37500
O33         O  0.42390853  0.48639395  0.85973956    -0.58100
O34         O  0.37265312  0.50120488  0.91582595    -0.56900
C35         C  0.32898713  0.01059182  0.80416339     0.76800
O36         O  0.31854113  0.02080250  0.90654690    -0.59300
O37         O  0.40758965  0.02668429  0.85572832    -0.57800
O38         O  0.29643761  0.46934452  0.86950141    -0.57800
O39         O  0.34429566  0.48899579  0.81049047    -0.56900
O40         O  0.42060526  0.48981986  0.12223191    -0.58100
C41         C  0.31100172  0.45002029  0.11368889     0.74500
O42         O  0.31775812  0.02835571  0.15567902    -0.59300
C43         C  0.43122972  0.01344761  0.12309179     0.74500
C44         C  0.34074157  0.01458224  0.05542245     0.76900
Cd45       Cd  0.34987997  0.49918459  0.11750110     1.37500
O46         O  0.34773344  0.45125717  0.11725473    -0.58100
O47         O  0.36661422  0.49933899  0.06517139    -0.56900
C48         C  0.32389619  0.01281210  0.17754234     0.76800
O49         O  0.31665090  0.02356707  0.07492697    -0.59300
O50         O  0.29318571  0.47139359  0.11097538    -0.57800
O51         O  0.40420782  0.03018962  0.12213964    -0.57800
O52         O  0.34063944  0.49167320  0.17095131    -0.56900
O53         O  0.68177396  0.44918824  0.36302885    -0.58100
C54         C  0.59287941  0.00886172  0.35573270     0.74500
O55         O  0.70316149  0.02389037  0.40701980    -0.59300
C56         C  0.71867329  0.44985131  0.36586540     0.74500
C57         C  0.69873280  0.01293420  0.30548607     0.76900
Cd58       Cd  0.67423931  0.49691759  0.36440707     1.37500
O59         O  0.60374223  0.48564032  0.36037980    -0.58100
O60         O  0.68541124  0.49055915  0.31107056    -0.56900
C61         C  0.68131681  0.01309836  0.42675496     0.76800
O62         O  0.70272070  0.02831007  0.32797281    -0.59300
O63         O  0.61957746  0.02581966  0.35454897    -0.57800
O64         O  0.73411656  0.47207348  0.36859208    -0.57800
O65         O  0.65837902  0.49571988  0.41718600    -0.56900
O66         O  0.60724149  0.48471714  0.62439585    -0.58100
C67         C  0.72074552  0.45082540  0.61514568     0.74500
O68         O  0.70683407  0.02386436  0.57522941    -0.59300
C69         C  0.59487569  0.00779586  0.62794527     0.74500
C70         C  0.70033646  0.01567762  0.67820376     0.76900
Cd71       Cd  0.67683443  0.99829078  0.61899597     1.37500
O72         O  0.68373969  0.45044869  0.61714632    -0.58100
O73         O  0.68873379  0.99289480  0.67251371    -0.56900
C74         C  0.68162444  0.01521468  0.55666443     0.76800
O75         O  0.70299859  0.03107680  0.65574999    -0.59300
O76         O  0.73670267  0.47298233  0.61404191    -0.57800
O77         O  0.62046914  0.02551364  0.62855296    -0.57800
O78         O  0.65610126  0.50012559  0.56749987    -0.56900
O79         O  0.60639520  0.06547274  0.85936036    -0.58100
C80         C  0.71912417  0.10434580  0.86708338     0.74500
O81         O  0.70762868  0.03326294  0.90894669    -0.59300
C82         C  0.59642275  0.04168468  0.85963174     0.74500
C83         C  0.69861604  0.04281193  0.80449184     0.76900
Cd84       Cd  0.67656974  0.05671567  0.86512408     1.37500
O85         O  0.68211346  0.10444506  0.86505723    -0.58100
O86         O  0.68040258  0.06336812  0.81132262    -0.56900
C87         C  0.68376419  0.04340157  0.92787800     0.76800
O88         O  0.70782440  0.02792406  0.82636925    -0.59300
O89         O  0.73544365  0.08238419  0.86916221    -0.57800
O90         O  0.62364220  0.02520690  0.86221400    -0.57800
O91         O  0.65850918  0.05870788  0.91727224    -0.56900
O92         O  0.68554748  0.10428267  0.12118258    -0.58100
C93         C  0.59450949  0.04370606  0.12567993     0.74500
O94         O  0.70522325  0.03215526  0.07685492    -0.59300
C95         C  0.72248146  0.10338245  0.11821162     0.74500
C96         C  0.69820264  0.04153995  0.18027249     0.76900
Cd97       Cd  0.67623946  0.05694383  0.12071229     1.37500
O98         O  0.60557608  0.06727843  0.12496809    -0.58100
O99         O  0.68149161  0.06281471  0.17449151    -0.56900
C100        C  0.68322907  0.04363593  0.05797804     0.76800
O101        O  0.70599375  0.02671589  0.15779112    -0.59300
O102        O  0.62125087  0.02672489  0.12519446    -0.57800
O103        O  0.73762061  0.08102193  0.11604543    -0.57800
O104        O  0.65967915  0.06027996  0.06861282    -0.56900
O105        O  0.85079450  0.35785412  0.36151745    -0.58100
C106        C  0.93867511  0.29488590  0.35800787     0.74500
O107        O  0.82763831  0.28746560  0.40803284    -0.59300
C108        C  0.81388054  0.35722122  0.36493073     0.74500
C109        C  0.83485321  0.29474671  0.30308903     0.76900
Cd110      Cd  0.85799895  0.31016378  0.36287296     1.37500
O111        O  0.92902123  0.31872117  0.35735089    -0.58100
O112        O  0.85174343  0.31599929  0.30900003    -0.56900
C113        C  0.85042481  0.29916050  0.42632715     0.76800
O114        O  0.82739873  0.27993805  0.32553561    -0.59300
O115        O  0.91102964  0.27860666  0.36009446    -0.57800
O116        O  0.79834684  0.33503179  0.36776030    -0.57800
O117        O  0.87476516  0.31478424  0.41474787    -0.56900
O118        O  0.85068870  0.35785339  0.62289493    -0.58100
C119        C  0.93777658  0.29423559  0.62663845     0.74500
O120        O  0.82706168  0.27895117  0.65637776    -0.59300
C121        C  0.81397349  0.35738907  0.61860378     0.74500
C122        C  0.85044039  0.29961742  0.55720970     0.76900
Cd123      Cd  0.85753408  0.31026150  0.62071548     1.37500
O124        O  0.92862825  0.31814744  0.62818510    -0.58100
O125        O  0.87463134  0.31534678  0.56871358    -0.56900
C126        C  0.83183336  0.29379175  0.67927839     0.76800
O127        O  0.82780481  0.28776389  0.57558242    -0.59300
O128        O  0.90990915  0.27837269  0.62303264    -0.57800
O129        O  0.79828982  0.33527118  0.61542360    -0.57800
O130        O  0.84655827  0.31589482  0.67427951    -0.56900
O131        O  0.84923141  0.19722332  0.86034201    -0.58100
C132        C  0.93873338  0.25883873  0.85410410     0.74500
O133        O  0.82677126  0.27614883  0.82649687    -0.59300
C134        C  0.81226336  0.19794171  0.86316487     0.74500
C135        C  0.85313360  0.25470905  0.92525627     0.76900
Cd136      Cd  0.85770801  0.24463913  0.86138000     1.37500
O137        O  0.92801326  0.23526233  0.85178603    -0.58100
O138        O  0.87432057  0.23760030  0.91273292    -0.56900
C139        C  0.83297843  0.26190011  0.80322591     0.76800
O140        O  0.83210188  0.26837873  0.90771935    -0.59300
O141        O  0.91200604  0.27530301  0.85911582    -0.57800
O142        O  0.79677633  0.22022337  0.86509289    -0.57800
O143        O  0.84910185  0.24018313  0.80764714    -0.56900
O144        O  0.85301803  0.19698765  0.12308320    -0.58100
C145        C  0.94011536  0.25937372  0.12802360     0.74500
O146        O  0.83292692  0.26818088  0.07452737    -0.59300
C147        C  0.81625155  0.19702212  0.11928007     0.74500
C148        C  0.83310402  0.26377358  0.17832940     0.76900
Cd149      Cd  0.85945140  0.24496750  0.12052245     1.37500
O150        O  0.92971875  0.23567705  0.12870907    -0.58100
O151        O  0.84808303  0.24161264  0.17424218    -0.56900
C152        C  0.85495704  0.25529585  0.05658829     0.76800
O153        O  0.82826762  0.27773377  0.15484746    -0.59300
O154        O  0.91318194  0.27588723  0.12465555    -0.57800
O155        O  0.80026698  0.21901329  0.11617627    -0.57800
O156        O  0.87750965  0.23900418  0.06872798    -0.56900
O157        O  0.18734662  0.19827195  0.36569082    -0.58100
C158        C  0.09983215  0.26058287  0.35906572     0.74500
O159        O  0.20910295  0.27037397  0.40794079    -0.59300
C160        C  0.22426904  0.19858161  0.36856447     0.74500
C161        C  0.20391498  0.25927621  0.30442752     0.76900
Cd162      Cd  0.18027055  0.24543854  0.36451571     1.37500
O163        O  0.10941827  0.23672254  0.35884014    -0.58100
O164        O  0.18685968  0.23813801  0.31062918    -0.56900
C165        C  0.18641217  0.25940436  0.42702107     0.76800
O166        O  0.21129552  0.27441450  0.32663337    -0.59300
O167        O  0.12745659  0.27686169  0.36105077    -0.57800
O168        O  0.24050900  0.22066137  0.36991000    -0.57800
O169        O  0.16264100  0.24281547  0.41671756    -0.56900
O170        O  0.10725314  0.23417597  0.62395296    -0.58100
C171        C  0.22004999  0.19468184  0.61414806     0.74500
O172        O  0.21109604  0.26634699  0.57548639    -0.59300
C173        C  0.09804113  0.25800323  0.62670329     0.74500
C174        C  0.20433827  0.25829339  0.67842346     0.76900
Cd175      Cd  0.17858704  0.24296355  0.61912048     1.37500
O176        O  0.18333707  0.19491763  0.61871066    -0.58100
O177        O  0.18942054  0.23638209  0.67262548    -0.56900
C178        C  0.18532527  0.25862999  0.55681913     0.76800
O179        O  0.20913248  0.27357431  0.65604320    -0.59300
O180        O  0.23655948  0.21653591  0.61127956    -0.57800
O181        O  0.12601070  0.27408999  0.62710468    -0.57800
O182        O  0.15810491  0.24476373  0.56749205    -0.56900
O183        O  0.18866912  0.35205557  0.86395616    -0.58100
C184        C  0.10105370  0.29095917  0.85496750     0.74500
O185        O  0.21244674  0.27321978  0.82644285    -0.59300
C186        C  0.22554690  0.35210665  0.86704765     0.74500
C187        C  0.18845326  0.28956694  0.92639388     0.76900
Cd188      Cd  0.18239865  0.30434567  0.86331342     1.37500
O189        O  0.11164122  0.31459835  0.85660393    -0.58100
O190        O  0.16332290  0.30504205  0.91596178    -0.56900
C191        C  0.20750904  0.28813915  0.80380265     0.76800
O192        O  0.21236166  0.27983782  0.90724444    -0.59300
O193        O  0.12798323  0.27421217  0.85647809    -0.57800
O194        O  0.24194803  0.33014991  0.86870517    -0.57800
O195        O  0.19311202  0.31024997  0.80936538    -0.56900
O196        O  0.18827474  0.35270957  0.11957678    -0.58100
C197        C  0.10214617  0.29155942  0.12794899     0.74500
O198        O  0.21285969  0.27976564  0.07566291    -0.59300
C199        C  0.22524153  0.35326617  0.11709108     0.74500
C200        C  0.20726974  0.28796669  0.17904009     0.76900
Cd201      Cd  0.18335260  0.30484602  0.11995702     1.37500
O202        O  0.11268185  0.31517483  0.12607941    -0.58100
O203        O  0.19226787  0.30991519  0.17395511    -0.56900
C204        C  0.18933163  0.28981383  0.05680962     0.76800
O205        O  0.21323729  0.27334924  0.15608319    -0.59300
O206        O  0.12912934  0.27480996  0.12706575    -0.57800
O207        O  0.24241348  0.33152269  0.11590915    -0.57800
O208        O  0.16494204  0.30585119  0.06752441    -0.56900
C209        C  0.22339034  0.27828887  0.97524653    -0.13700
C210        C  0.18891078  0.28412492  0.95947191     0.08500
C211        C  0.15434110  0.28792986  0.97615128    -0.13700
C212        C  0.15454239  0.28791915  0.00776129    -0.13700
C213        C  0.18932694  0.28412474  0.02375228     0.08500
C214        C  0.22359140  0.27827659  0.00730097    -0.13700
H215        H  0.25046608  0.27532822  0.96293509     0.12500
H216        H  0.12721153  0.29208464  0.96470704     0.12500
H217        H  0.12757384  0.29208738  0.01976081     0.12500
H218        H  0.25082011  0.27533435  0.01909096     0.12500
C219        C  0.21863214  0.29169767  0.71843622    -0.13700
C220        C  0.21341941  0.26562490  0.71015594     0.08500
C221        C  0.21222203  0.24669177  0.73310678    -0.13700
C222        C  0.21351305  0.25383926  0.76376769    -0.13700
C223        C  0.21546275  0.28008108  0.77207005     0.08500
C224        C  0.21933053  0.29888162  0.74913732    -0.13700
H225        H  0.21970493  0.30668076  0.70128675     0.12500
H226        H  0.20842921  0.22640730  0.72741055     0.12500
H227        H  0.21030754  0.23898519  0.78092267     0.12500
H228        H  0.22103797  0.31927191  0.75494432     0.12500
C229        C  0.21142977  0.24687155  0.24967360    -0.13700
C230        C  0.21273011  0.26605359  0.27252167     0.08500
C231        C  0.21808449  0.29200710  0.26412902    -0.13700
C232        C  0.21887267  0.29889471  0.23346518    -0.13700
C233        C  0.21502307  0.27992235  0.21061371     0.08500
C234        C  0.21292426  0.25373204  0.21895450    -0.13700
H235        H  0.20754431  0.22663088  0.25554771     0.12500
H236        H  0.21918978  0.30716772  0.28123197     0.12500
H237        H  0.22069029  0.31925618  0.22761619     0.12500
H238        H  0.20974887  0.23874035  0.20181142     0.12500
C239        C  0.15152171  0.26204833  0.47611137    -0.13700
C240        C  0.18661789  0.26484544  0.45992552     0.08500
C241        C  0.22131169  0.26933356  0.47596685    -0.13700
C242        C  0.22108127  0.26905833  0.50794029    -0.13700
C243        C  0.18611903  0.26438518  0.52394819     0.08500
C244        C  0.15124988  0.26190342  0.50766965    -0.13700
H245        H  0.12432866  0.25881847  0.46428212     0.12500
H246        H  0.24874764  0.27135714  0.46388963     0.12500
H247        H  0.24835802  0.27090593  0.51998580     0.12500
H248        H  0.12379627  0.25860592  0.51935285     0.12500
C249        C  0.99140518  0.29410699  0.13067090    -0.13700
C250        C  0.98150872  0.26758910  0.13024562     0.08500
C251        C  0.01159524  0.24915560  0.13054311    -0.13700
C252        C  0.05067781  0.25704749  0.13050732    -0.13700
C253        C  0.06061952  0.28354803  0.13020177     0.08500
C254        C  0.03053056  0.30200827  0.13065647    -0.13700
H255        H  0.96885016  0.30882051  0.13050582     0.12500
H256        H  0.00495672  0.22862523  0.13016127     0.12500
H257        H  0.07319227  0.24230307  0.13013006     0.12500
H258        H  0.03721289  0.32253321  0.13044808     0.12500
C259        C  0.99024476  0.29348936  0.85146589    -0.13700
C260        C  0.98025717  0.26698428  0.85184627     0.08500
C261        C  0.01035820  0.24854355  0.85151040    -0.13700
C262        C  0.04949147  0.25642504  0.85176903    -0.13700
C263        C  0.05950846  0.28292830  0.85227284     0.08500
C264        C  0.02940773  0.30137880  0.85161655    -0.13700
H265        H  0.96770111  0.30821477  0.85156254     0.12500
H266        H  0.00367436  0.22801675  0.85181831     0.12500
H267        H  0.07197355  0.24167337  0.85221115     0.12500
H268        H  0.03609216  0.32190348  0.85187835     0.12500
C269        C  0.82712731  0.27292791  0.97524728    -0.13700
C270        C  0.85395802  0.25760978  0.95876903     0.08500
C271        C  0.88201264  0.24346793  0.97478371    -0.13700
C272        C  0.88256422  0.24367704  0.00626795    -0.13700
C273        C  0.85501975  0.25799078  0.02304684     0.08500
C274        C  0.82763595  0.27309816  0.00728635    -0.13700
H275        H  0.80527106  0.28413106  0.96346416     0.12500
H276        H  0.90348155  0.23168166  0.96295905     0.12500
H277        H  0.90438281  0.23200985  0.01749461     0.12500
H278        H  0.80613373  0.28441752  0.01965760     0.12500
C279        C  0.00988165  0.30257177  0.63078641    -0.13700
C280        C  0.97875073  0.28498526  0.62834955     0.08500
C281        C  0.98714969  0.25828174  0.62652989    -0.13700
C282        C  0.02576681  0.24939273  0.62661961    -0.13700
C283        C  0.05692019  0.26701282  0.62854271     0.08500
C284        C  0.04849337  0.29368476  0.63086879    -0.13700
H285        H  0.00443684  0.32321925  0.63217994     0.12500
H286        H  0.96380292  0.24418507  0.62461852     0.12500
H287        H  0.03123981  0.22877491  0.62471515     0.12500
H288        H  0.07185355  0.30781259  0.63231079     0.12500
C289        C  0.82160983  0.25927282  0.71814153    -0.13700
C290        C  0.82325716  0.28565671  0.71072741     0.08500
C291        C  0.82223207  0.30424800  0.73423889    -0.13700
C292        C  0.82234394  0.29655906  0.76465293    -0.13700
C293        C  0.82404966  0.27016845  0.77199788     0.08500
C294        C  0.82232435  0.25159100  0.74852938    -0.13700
H295        H  0.82245397  0.24457568  0.70051102     0.12500
H296        H  0.82331091  0.32475349  0.72911749     0.12500
H297        H  0.82373903  0.31123365  0.78227998     0.12500
H298        H  0.82338323  0.23108521  0.75362563     0.12500
C299        C  0.98911535  0.25964320  0.35557193    -0.13700
C300        C  0.97998749  0.28624283  0.35694961     0.08500
C301        C  0.01065057  0.30428702  0.35832079    -0.13700
C302        C  0.04949953  0.29590202  0.35867296    -0.13700
C303        C  0.05861422  0.26929017  0.35757056     0.08500
C304        C  0.02797191  0.25125977  0.35583767    -0.13700
H305        H  0.96613650  0.24522041  0.35451578     0.12500
H306        H  0.00461206  0.32487053  0.35954471     0.12500
H307        H  0.07245576  0.31032192  0.36010593     0.12500
H308        H  0.03399896  0.23066251  0.35499562     0.12500
C309        C  0.81763569  0.26195723  0.26311293    -0.13700
C310        C  0.82626974  0.28765023  0.27120361     0.08500
C311        C  0.83087836  0.30622770  0.24806000    -0.13700
C312        C  0.82964368  0.29890309  0.21745473    -0.13700
C313        C  0.82432604  0.27281040  0.20948048     0.08500
C314        C  0.81699010  0.25457281  0.23251176    -0.13700
H315        H  0.81380188  0.24726367  0.28040739     0.12500
H316        H  0.83730368  0.32627322  0.25361635     0.12500
H317        H  0.83567428  0.31328976  0.20015392     0.12500
H318        H  0.81270019  0.23429267  0.22686493     0.12500
C319        C  0.88329644  0.30307445  0.47583952    -0.13700
C320        C  0.84997822  0.29559195  0.45967930     0.08500
C321        C  0.81689267  0.28706950  0.47594989    -0.13700
C322        C  0.81689465  0.28724633  0.50798396    -0.13700
C323        C  0.84996347  0.29596706  0.52386218     0.08500
C324        C  0.88327252  0.30329222  0.50734145    -0.13700
H325        H  0.90944623  0.30944321  0.46404984     0.12500
H326        H  0.79073915  0.28130261  0.46400270     0.12500
H327        H  0.79075293  0.28157909  0.52024442     0.12500
H328        H  0.90939539  0.30980098  0.51884014     0.12500
C329        C  0.78777007  0.12568153  0.11892061    -0.13700
C330        C  0.74679601  0.12717263  0.11763154     0.08500
C331        C  0.72916885  0.15167920  0.11640059    -0.13700
C332        C  0.75184295  0.17422779  0.11673503    -0.13700
C333        C  0.79274445  0.17283954  0.11849903     0.08500
C334        C  0.81050690  0.14830871  0.11949096    -0.13700
H335        H  0.80221680  0.10704765  0.11988526     0.12500
H336        H  0.69770889  0.15346229  0.11526903     0.12500
H337        H  0.73724795  0.19280149  0.11586087     0.12500
H338        H  0.84197430  0.14660451  0.12074540     0.12500
C339        C  0.72464447  0.15289693  0.86645702    -0.13700
C340        C  0.74257909  0.12843640  0.86654569     0.08500
C341        C  0.78353438  0.12702923  0.86542652    -0.13700
C342        C  0.80609781  0.14958442  0.86420276    -0.13700
C343        C  0.78826309  0.17405950  0.86423502     0.08500
C344        C  0.74726809  0.17550878  0.86541100    -0.13700
H345        H  0.69311986  0.15456468  0.86720891     0.12500
H346        H  0.79820893  0.10845844  0.86528839     0.12500
H347        H  0.83759803  0.14783924  0.86330130     0.12500
H348        H  0.73267821  0.19410858  0.86542024     0.12500
C349        C  0.64938123  0.04229094  0.97730258    -0.13700
C350        C  0.68417649  0.03850381  0.96092498     0.08500
C351        C  0.71865555  0.03314889  0.97686904    -0.13700
C352        C  0.71847927  0.03319893  0.00885826    -0.13700
C353        C  0.68385223  0.03864349  0.02497075     0.08500
C354        C  0.64924375  0.04243376  0.00883663    -0.13700
H355        H  0.62227164  0.04618401  0.96564720     0.12500
H356        H  0.74593238  0.53036841  0.96471308     0.12500
H357        H  0.74561310  0.53045939  0.02089824     0.12500
H358        H  0.62207057  0.04645509  0.02069831     0.12500
C359        C  0.72659891  0.40230143  0.61547045    -0.13700
C360        C  0.74445153  0.42681394  0.61485213     0.08500
C361        C  0.78544390  0.42829974  0.61512885    -0.13700
C362        C  0.80807642  0.40578276  0.61645719    -0.13700
C363        C  0.79023135  0.38129984  0.61726558     0.08500
C364        C  0.74924799  0.37977018  0.61658057    -0.13700
H365        H  0.69507721  0.40053072  0.61533058     0.12500
H366        H  0.80006386  0.44690330  0.61470987     0.12500
H367        H  0.83958672  0.40755088  0.61681578     0.12500
H368        H  0.73464643  0.36115360  0.61717820     0.12500
C369        C  0.70404618  0.04954548  0.71905580    -0.13700
C370        C  0.70808823  0.02359914  0.70991713     0.08500
C371        C  0.71431935  0.00452151  0.73214080    -0.13700
C372        C  0.71397279  0.01097680  0.76302727    -0.13700
C373        C  0.70678666  0.03657576  0.77225502     0.08500
C374        C  0.70311822  0.05594929  0.74997703    -0.13700
H375        H  0.69908524  0.06460278  0.70245486     0.12500
H376        H  0.71771961  0.98437220  0.72568194     0.12500
H377        H  0.71694966  0.99570658  0.77965071     0.12500
H378        H  0.69784756  0.07592337  0.75647196     0.12500
C379        C  0.74872910  0.37909905  0.36484158    -0.13700
C380        C  0.78968607  0.38098081  0.36538294     0.08500
C381        C  0.80699397  0.40564133  0.36613518    -0.13700
C382        C  0.78383749  0.42796570  0.36646181    -0.13700
C383        C  0.74288297  0.42608962  0.36582832     0.08500
C384        C  0.72558134  0.40142428  0.36492908    -0.13700
H385        H  0.73453725  0.36034828  0.36413976     0.12500
H386        H  0.83846261  0.40769157  0.36657172     0.12500
H387        H  0.79803623  0.44671591  0.36706833     0.12500
H388        H  0.69411570  0.39936434  0.36436125     0.12500
C389        C  0.70542779  0.04682287  0.26552305    -0.13700
C390        C  0.70678454  0.02065479  0.27386673     0.08500
C391        C  0.71057348  0.50156688  0.25109257    -0.13700
C392        C  0.71060876  0.50842663  0.22041713    -0.13700
C393        C  0.70620901  0.03445072  0.21205736     0.08500
C394        C  0.70487488  0.05364841  0.23486972    -0.13700
H395        H  0.70229283  0.06188535  0.28261770     0.12500
H396        H  0.71177682  0.48119762  0.25699135     0.12500
H397        H  0.71164641  0.49326649  0.20330117     0.12500
H398        H  0.70169645  0.07392595  0.22900729     0.12500
C399        C  0.64711351  0.51443827  0.47614449    -0.13700
C400        C  0.68122841  0.01961781  0.45953685     0.08500
C401        C  0.71474506  0.02785871  0.47520391    -0.13700
C402        C  0.71476258  0.02848026  0.50726349    -0.13700
C403        C  0.68121755  0.02096404  0.52368946     0.08500
C404        C  0.64704963  0.51520667  0.50764892    -0.13700
H405        H  0.62060471  0.50854231  0.46472500     0.12500
H406        H  0.74143095  0.03209570  0.46285562     0.12500
H407        H  0.74149727  0.03313146  0.51908854     0.12500
H408        H  0.62046999  0.50982672  0.51953187     0.12500
C409        C  0.24878156  0.42483375  0.10983264    -0.13700
C410        C  0.28953332  0.42508525  0.11336585     0.08500
C411        C  0.30905367  0.40147723  0.11771352    -0.13700
C412        C  0.28819915  0.37812056  0.11872706    -0.13700
C413        C  0.24736690  0.37794028  0.11561192     0.08500
C414        C  0.22793314  0.40153137  0.11106011    -0.13700
H415        H  0.23289092  0.44270299  0.10644660     0.12500
H416        H  0.34043101  0.40107118  0.12062185     0.12500
H417        H  0.30397175  0.36023672  0.12230916     0.12500
H418        H  0.19652687  0.40198579  0.10840907     0.12500
C419        C  0.50247264  0.50244377  0.12680066    -0.13700
C420        C  0.47294890  0.02122567  0.12475000     0.08500
C421        C  0.48373386  0.04756356  0.12369406    -0.13700
C422        C  0.52310179  0.05493532  0.12447631    -0.13700
C423        C  0.55263100  0.03613776  0.12632170     0.08500
C424        C  0.54181200  0.00981329  0.12758785    -0.13700
H425        H  0.49518435  0.48202105  0.12760212     0.12500
H426        H  0.46169935  0.06253580  0.12198037     0.12500
H427        H  0.53043514  0.07533575  0.12328238     0.12500
H428        H  0.56384623  0.49480539  0.12893274     0.12500
C429        C  0.25091750  0.42355815  0.87036034    -0.13700
C430        C  0.29193959  0.42309594  0.86963509     0.08500
C431        C  0.31107058  0.39903666  0.86865229    -0.13700
C432        C  0.28953176  0.37592210  0.86814757    -0.13700
C433        C  0.24845136  0.37646476  0.86844522     0.08500
C434        C  0.22945091  0.40052226  0.86968944    -0.13700
H435        H  0.23530060  0.44177706  0.87107715     0.12500
H436        H  0.34266494  0.39807907  0.86799440     0.12500
H437        H  0.30500742  0.35765404  0.86715079     0.12500
H438        H  0.19786768  0.40157261  0.87002354     0.12500
C439        C  0.54498324  0.00705341  0.85992024    -0.13700
C440        C  0.55515047  0.03340416  0.85732257     0.08500
C441        C  0.52546214  0.05172749  0.85302111    -0.13700
C442        C  0.48639561  0.04393569  0.85193869    -0.13700
C443        C  0.47613197  0.01766093  0.85520592     0.08500
C444        C  0.50588672  0.49925785  0.85886777    -0.13700
H445        H  0.56724857  0.49244230  0.86321520     0.12500
H446        H  0.53237833  0.07213211  0.85083094     0.12500
H447        H  0.46411824  0.05860778  0.84907608     0.12500
H448        H  0.49890676  0.47890799  0.86152828     0.12500
C449        C  0.30669889  0.02453531  0.97422088    -0.13700
C450        C  0.34226554  0.02081612  0.95858935     0.08500
C451        C  0.37685300  0.01938692  0.97531674    -0.13700
C452        C  0.37588373  0.01933621  0.00683290    -0.13700
C453        C  0.34033754  0.02078662  0.02267878     0.08500
C454        C  0.30573029  0.02453782  0.00626170    -0.13700
H455        H  0.27960634  0.02564578  0.96181968     0.12500
H456        H  0.40475181  0.01688419  0.96399911     0.12500
H457        H  0.40305315  0.01682213  0.01887235     0.12500
H458        H  0.27793732  0.02565571  0.01801055     0.12500
C459        C  0.24627889  0.12322122  0.61199904    -0.13700
C460        C  0.28732013  0.12408812  0.61233938     0.08500
C461        C  0.30596344  0.14833761  0.61231422    -0.13700
C462        C  0.28403316  0.17122476  0.61237897    -0.13700
C463        C  0.24297392  0.17034530  0.61270366     0.08500
C464        C  0.22435408  0.14610184  0.61234125    -0.13700
H465        H  0.23104689  0.10482939  0.61198710     0.12500
H466        H  0.33753428  0.14963592  0.61251534     0.12500
H467        H  0.29924867  0.18962438  0.61267855     0.12500
H468        H  0.19278381  0.14480405  0.61249876     0.12500
C469        C  0.48458162  0.00308459  0.62268916    -0.13700
C470        C  0.47345020  0.02904973  0.62771181     0.08500
C471        C  0.50228906  0.04735761  0.63485616    -0.13700
C472        C  0.54149194  0.04007501  0.63608779    -0.13700
C473        C  0.55285788  0.01434312  0.63006986     0.08500
C474        C  0.52393336  0.49579287  0.62383372    -0.13700
H475        H  0.46294710  0.48849672  0.61715621     0.12500
H476        H  0.49462577  0.06741854  0.63907831     0.12500
H477        H  0.56308817  0.05482847  0.64108488     0.12500
H478        H  0.53179598  0.47585912  0.61898917     0.12500
C479        C  0.31893781  0.00369772  0.71908111    -0.13700
C480        C  0.31998486  0.02970494  0.70992551     0.08500
C481        C  0.31846061  0.04933366  0.73223606    -0.13700
C482        C  0.31837148  0.04312173  0.76311074    -0.13700
C483        C  0.32044522  0.01716527  0.77225160     0.08500
C484        C  0.31942167  0.99748584  0.74998589    -0.13700
H485        H  0.32019672  0.48819300  0.70240196     0.12500
H486        H  0.31907318  0.06959480  0.72580554     0.12500
H487        H  0.31920859  0.05865976  0.77975360     0.12500
H488        H  0.32079447  0.47724758  0.75644762     0.12500
C489        C  0.28835259  0.17498044  0.37004749    -0.13700
C490        C  0.24727559  0.17438665  0.36992007     0.08500
C491        C  0.22816437  0.15034472  0.37037620    -0.13700
C492        C  0.24947687  0.12734009  0.37054039    -0.13700
C493        C  0.29045417  0.12781708  0.36995559     0.08500
C494        C  0.30977828  0.15184866  0.36991508    -0.13700
H495        H  0.30387497  0.19327043  0.36974711     0.12500
H496        H  0.19658711  0.14926775  0.37034469     0.12500
H497        H  0.23376575  0.10912684  0.37049705     0.12500
H498        H  0.34138589  0.15275476  0.36954759     0.12500
C499        C  0.48229020  0.00527219  0.35503474    -0.13700
C500        C  0.47205795  0.03156733  0.35204079     0.08500
C501        C  0.50183000  0.05001785  0.34836837    -0.13700
C502        C  0.54099994  0.04244064  0.34862584    -0.13700
C503        C  0.55129725  0.01626744  0.35268768     0.08500
C504        C  0.52150407  0.49769838  0.35537541    -0.13700
H505        H  0.45996523  0.49055902  0.35785619     0.12500
H506        H  0.49489230  0.07037676  0.34592147     0.12500
H507        H  0.56330120  0.05723912  0.34636602     0.12500
H508        H  0.52848686  0.47741330  0.35844753     0.12500
C509        C  0.31567378  0.00570367  0.26264962    -0.13700
C510        C  0.31289781  0.03166232  0.27196207     0.08500
C511        C  0.30751576  0.05098128  0.24987807    -0.13700
C512        C  0.30792471  0.04467345  0.21893142    -0.13700
C513        C  0.31434702  0.01899499  0.20957713     0.08500
C514        C  0.31663795  0.99944456  0.23173500    -0.13700
H515        H  0.31998384  0.99045188  0.27915393     0.12500
H516        H  0.30510098  0.07118839  0.25649925     0.12500
H517        H  0.30592218  0.06010108  0.20237503     0.12500
H518        H  0.32126820  0.97939350  0.22516766     0.06100
C519        C  0.31009078  0.02730336  0.47416558    -0.13700
C520        C  0.34369997  0.03491835  0.45793248     0.08500
C521        C  0.37798403  0.04025859  0.47399058    -0.13700
C522        C  0.37833879  0.03966972  0.50546380    -0.13700
C523        C  0.34440655  0.03376079  0.52202163     0.08500
C524        C  0.31043638  0.02673947  0.50617522    -0.13700
H525        H  0.28325823  0.52310273  0.46226758     0.12500
H526        H  0.40453947  0.04582692  0.46218848     0.12500
H527        H  0.40514670  0.04483902  0.51693425     0.12500
H528        H  0.28384829  0.52216054  0.51845847     0.12500
O529        O  0.34848559  0.60214099  0.36215543    -0.58100
C530        C  0.43068948  0.53970027  0.35426355     0.74500
O531        O  0.31918185  0.53055004  0.40637526    -0.59300
C532        C  0.31219958  0.60313859  0.36827585     0.74500
C533        C  0.32204367  0.53905312  0.30358963     0.76900
Cd534      Cd  0.35032826  0.55421663  0.36227492     1.37500
O535        O  0.42042214  0.56338752  0.35361204    -0.58100
O536        O  0.33526254  0.56140788  0.30940783    -0.56900
C537        C  0.34372566  0.54010560  0.42491856     0.76800
O538        O  0.31958751  0.52334229  0.32574750    -0.59300
O539        O  0.40366527  0.52316833  0.35765571    -0.57800
O540        O  0.29480559  0.58169891  0.37223046    -0.57800
O541        O  0.36932484  0.55511764  0.41393172    -0.56900
O542        O  0.34700215  0.59955617  0.61708407    -0.58100
C543        C  0.43215144  0.53709266  0.62484313     0.74500
O544        O  0.32281096  0.52097834  0.65577761    -0.59300
C545        C  0.31016253  0.59973631  0.61365213     0.74500
C546        C  0.34499262  0.53812735  0.55523947     0.76900
Cd547      Cd  0.35175107  0.55162604  0.61801713     1.37500
O548        O  0.42184818  0.56080589  0.62536884    -0.58100
O549        O  0.37074828  0.55293272  0.56627994    -0.56900
C550        C  0.32782392  0.53663159  0.67789161     0.76800
O551        O  0.32064814  0.52820776  0.57387872    -0.59300
O552        O  0.40522966  0.52049084  0.62142486    -0.57800
O553        O  0.29346083  0.57783644  0.61188233    -0.57800
O554        O  0.34181084  0.55867453  0.67152881    -0.56900
O555        O  0.35103784  0.94861836  0.86678370    -0.58100
C556        C  0.43452811  0.50988812  0.85663731     0.74500
O557        O  0.32340123  0.52626986  0.82619240    -0.59300
C558        C  0.31403769  0.94777427  0.86879939     0.74500
C559        C  0.34430367  0.51444284  0.92579255     0.76900
Cd560      Cd  0.35352510  0.99668150  0.86402513     1.37500
O561        O  0.42390431  0.98639539  0.85974598    -0.58100
O562        O  0.37264803  0.00121560  0.91582630    -0.56900
C563        C  0.32898762  0.51058934  0.80416235     0.76800
O564        O  0.31855491  0.52080270  0.90654679    -0.59300
O565        O  0.40759260  0.52668312  0.85572829    -0.57800
O566        O  0.29643318  0.96934695  0.86950161    -0.57800
O567        O  0.34429170  0.98899754  0.81049295    -0.56900
O568        O  0.42060133  0.98982223  0.12222598    -0.58100
C569        C  0.31099741  0.95002267  0.11368653     0.74500
O570        O  0.31775530  0.52835107  0.15567974    -0.59300
C571        C  0.43123341  0.51344531  0.12309652     0.74500
C572        C  0.34075285  0.51457773  0.05542294     0.76900
Cd573      Cd  0.34987530  0.99918738  0.11749885     1.37500
O574        O  0.34772919  0.95125968  0.11725198    -0.58100
O575        O  0.36660783  0.99934678  0.06516997    -0.56900
C576        C  0.32389630  0.51280904  0.17754410     0.76800
O577        O  0.31666455  0.52356633  0.07492689    -0.59300
O578        O  0.29318128  0.97139597  0.11097341    -0.57800
O579        O  0.40421158  0.53018723  0.12214237    -0.57800
O580        O  0.34063377  0.99167468  0.17094810    -0.56900
O581        O  0.68177264  0.94918751  0.36302185    -0.58100
C582        C  0.59288452  0.50886355  0.35573227     0.74500
O583        O  0.70317411  0.52389040  0.40701996    -0.59300
C584        C  0.71867195  0.94985120  0.36585858     0.74500
C585        C  0.69873532  0.51293407  0.30548758     0.76900
Cd586      Cd  0.67423501  0.99691626  0.36440453     1.37500
O587        O  0.60373801  0.98563804  0.36037597    -0.58100
O588        O  0.68540416  0.99056023  0.31106762    -0.56900
C589        C  0.68132431  0.51310406  0.42675595     0.76800
O590        O  0.70272084  0.52831114  0.32797340    -0.59300
O591        O  0.61958310  0.52582102  0.35454626    -0.57800
O592        O  0.73411412  0.97207352  0.36858756    -0.57800
O593        O  0.65837909  0.99571031  0.41718354    -0.56900
O594        O  0.60723825  0.98471721  0.62440066    -0.58100
C595        C  0.72074469  0.95082608  0.61515216     0.74500
O596        O  0.70684338  0.52386432  0.57523011    -0.59300
C597        C  0.59487977  0.50779555  0.62794458     0.74500
C598        C  0.70033805  0.51567630  0.67820240     0.76900
Cd599      Cd  0.67683762  0.49829068  0.61899363     1.37500
O600        O  0.68373883  0.95044900  0.61715175    -0.58100
O601        O  0.68873959  0.49289271  0.67251127    -0.56900
C602        C  0.68163143  0.51521968  0.55666395     0.76800
O603        O  0.70299785  0.53107628  0.65574931    -0.59300
O604        O  0.73670126  0.97298319  0.61404728    -0.57800
O605        O  0.62047361  0.52551298  0.62855503    -0.57800
O606        O  0.65609921  0.00011795  0.56750232    -0.56900
O607        O  0.60639825  0.56547145  0.85936062    -0.58100
C608        C  0.71912434  0.60434468  0.86708567     0.74500
O609        O  0.70763292  0.53326089  0.90894623    -0.59300
C610        C  0.59642559  0.54168342  0.85963017     0.74500
C611        C  0.69861745  0.54281071  0.80449132     0.76900
Cd612      Cd  0.67657245  0.55671378  0.86512433     1.37500
O613        O  0.68211362  0.60444299  0.86505992    -0.58100
O614        O  0.68040474  0.56336705  0.81132283    -0.56900
C615        C  0.68376825  0.54339860  0.92787806     0.76800
O616        O  0.70782658  0.52792272  0.82636838    -0.59300
O617        O  0.73544533  0.58238344  0.86916285    -0.57800
O618        O  0.62364475  0.52520539  0.86221197    -0.57800
O619        O  0.65851185  0.55870419  0.91727291    -0.56900
O620        O  0.68554660  0.60428066  0.12117861    -0.58100
C621        C  0.59451269  0.54370361  0.12568166     0.74500
O622        O  0.70522868  0.53215338  0.07685524    -0.59300
C623        C  0.72248097  0.60338154  0.11821032     0.74500
C624        C  0.69820370  0.54153881  0.18027300     0.76900
Cd625      Cd  0.67624198  0.55694161  0.12071203     1.37500
O626        O  0.60557907  0.56727595  0.12496792    -0.58100
O627        O  0.68149348  0.56281374  0.17449129    -0.56900
C628        C  0.68323326  0.54363252  0.05797799     0.76800
O629        O  0.70599526  0.52671443  0.15779204    -0.59300
O630        O  0.62125409  0.52672243  0.12519655    -0.57800
O631        O  0.73762207  0.58102139  0.11604748    -0.57800
O632        O  0.65968091  0.56027519  0.06861232    -0.56900
O633        O  0.85079437  0.85785377  0.36151340    -0.58100
C634        C  0.93867214  0.79488320  0.35801009     0.74500
O635        O  0.82763250  0.78746524  0.40803191    -0.59300
C636        C  0.81388029  0.85722160  0.36492605     0.74500
C637        C  0.83484875  0.79474687  0.30308871     0.76900
Cd638      Cd  0.85799625  0.81016293  0.36287262     1.37500
O639        O  0.92901905  0.81871857  0.35735272    -0.58100
O640        O  0.85174121  0.81599862  0.30899979    -0.56900
C641        C  0.85041662  0.79916145  0.42632685     0.76800
O642        O  0.82739383  0.77993812  0.32553514    -0.59300
O643        O  0.91102599  0.77860438  0.36009603    -0.57800
O644        O  0.79834586  0.83503258  0.36775756    -0.57800
O645        O  0.87475639  0.81478592  0.41474815    -0.56900
O646        O  0.85068805  0.85785285  0.62289921    -0.58100
C647        C  0.93777320  0.79423275  0.62663728     0.74500
O648        O  0.82705528  0.77895078  0.65637757    -0.59300
C649        C  0.81397249  0.85738942  0.61860977     0.74500
C650        C  0.85043187  0.79961852  0.55720955     0.76900
Cd651      Cd  0.85753069  0.81026042  0.62071572     1.37500
O652        O  0.92862556  0.81814474  0.62818331    -0.58100
O653        O  0.87462293  0.81534798  0.56871314    -0.56900
C654        C  0.83182817  0.79379124  0.67927817     0.76800
O655        O  0.82779792  0.78776415  0.57558266    -0.59300
O656        O  0.90990516  0.77837019  0.62303243    -0.57800
O657        O  0.79828786  0.83527195  0.61542836    -0.57800
O658        O  0.84655664  0.81589327  0.67427948    -0.56900
O659        O  0.84922418  0.69722619  0.86033954    -0.58100
C660        C  0.93872438  0.75884285  0.85410502     0.74500
O661        O  0.82676025  0.77615136  0.82649659    -0.59300
C662        C  0.81225644  0.69794362  0.86316539     0.74500
C663        C  0.85312351  0.75470822  0.92525502     0.76900
Cd664      Cd  0.85769884  0.74464205  0.86137888     1.37500
O665        O  0.92800440  0.73526657  0.85178487    -0.58100
O666        O  0.87431000  0.73759999  0.91273031    -0.56900
C667        C  0.83296664  0.76190245  0.80322563     0.76800
O668        O  0.83209340  0.76838009  0.90771916    -0.59300
O669        O  0.91199680  0.77530674  0.85911781    -0.57800
O670        O  0.79676836  0.72022489  0.86509507    -0.57800
O671        O  0.84909056  0.74018563  0.80764656    -0.56900
O672        O  0.85301001  0.69699100  0.12308587    -0.58100
C673        C  0.94010638  0.75937791  0.12802185     0.74500
O674        O  0.83291940  0.76818278  0.07452574    -0.59300
C675        C  0.81624419  0.69702439  0.11927900     0.74500
C676        C  0.83309284  0.76377661  0.17832861     0.76900
Cd677      Cd  0.85944219  0.74497065  0.12052204     1.37500
O678        O  0.92970978  0.73568128  0.12870906    -0.58100
O679        O  0.84806999  0.74161513  0.17424120    -0.56900
C680        C  0.85494698  0.75529494  0.05658758     0.76800
O681        O  0.82825865  0.77773740  0.15484689    -0.59300
O682        O  0.91317288  0.77589114  0.12465240    -0.57800
O683        O  0.80025897  0.71901504  0.11617205    -0.57800
O684        O  0.87749816  0.73900302  0.06872850    -0.56900
O685        O  0.18735009  0.69827219  0.36569442    -0.58100
C686        C  0.09982914  0.76057987  0.35906731     0.74500
O687        O  0.20909716  0.77037541  0.40794103    -0.59300
C688        C  0.22427258  0.69858366  0.36856767     0.74500
C689        C  0.20390995  0.75927704  0.30442871     0.76900
Cd690      Cd  0.18026829  0.74543800  0.36451668     1.37500
O691        O  0.10941615  0.73671966  0.35884083    -0.58100
O692        O  0.18685602  0.73813823  0.31062998    -0.56900
C693        C  0.18640584  0.75940608  0.42702116     0.76800
O694        O  0.21129040  0.77441504  0.32663480    -0.59300
O695        O  0.12745292  0.77685913  0.36105257    -0.57800
O696        O  0.24051030  0.72066419  0.36991160    -0.57800
O697        O  0.16263605  0.74281623  0.41671790    -0.56900
O698        O  0.10725087  0.73417362  0.62395272    -0.58100
C699        C  0.22005264  0.69468426  0.61414243     0.74500
O700        O  0.21108901  0.76634953  0.57548539    -0.59300
C701        C  0.09803801  0.75800081  0.62670255     0.74500
C702        C  0.20433516  0.75829330  0.67842166     0.76900
Cd703      Cd  0.17858428  0.74296339  0.61911867     1.37500
O704        O  0.18333992  0.69491804  0.61870631    -0.58100
O705        O  0.18941912  0.73638145  0.67262372    -0.56900
C706        C  0.18531818  0.75863222  0.55681831     0.76800
O707        O  0.20912824  0.77357432  0.65604139    -0.59300
O708        O  0.23655955  0.71653921  0.61127417    -0.57800
O709        O  0.12600692  0.77408807  0.62710333    -0.57800
O710        O  0.15809930  0.74476458  0.56749100    -0.56900
O711        O  0.18866323  0.85205843  0.86395343    -0.58100
C712        C  0.10104544  0.79096286  0.85496744     0.74500
O713        O  0.21243925  0.77322179  0.82644142    -0.59300
C714        C  0.22554081  0.85210937  0.86704632     0.74500
C715        C  0.18844589  0.78957058  0.92639351     0.76900
Cd716      Cd  0.18239140  0.80434841  0.86331213     1.37500
O717        O  0.11163354  0.81460188  0.85660396    -0.58100
O718        O  0.16331602  0.80504580  0.91596090    -0.56900
C719        C  0.20750051  0.78814070  0.80380092     0.76800
O720        O  0.21235368  0.77984060  0.90724420    -0.59300
O721        O  0.12797478  0.77421560  0.85647724    -0.57800
O722        O  0.24194142  0.83015251  0.86870472    -0.57800
O723        O  0.19310283  0.81025135  0.80936351    -0.56900
O724        O  0.18826922  0.85271292  0.11957990    -0.58100
C725        C  0.10213764  0.79156342  0.12794930     0.74500
O726        O  0.21285075  0.77976896  0.07566357    -0.59300
C727        C  0.22523577  0.85326899  0.11709195     0.74500
C728        C  0.20726075  0.78797005  0.17904170     0.76900
Cd729      Cd  0.18334463  0.80484946  0.11995817     1.37500
O730        O  0.11267365  0.81517877  0.12607946    -0.58100
O731        O  0.19225953  0.80991870  0.17395645    -0.56900
C732        C  0.18932396  0.78981836  0.05681016     0.76800
O733        O  0.21322810  0.77335247  0.15608486    -0.59300
O734        O  0.12912068  0.77481384  0.12706666    -0.57800
O735        O  0.24240683  0.83152522  0.11590849    -0.57800
O736        O  0.16493532  0.80585631  0.06752513    -0.56900
C737        C  0.22338266  0.77829277  0.97524674    -0.13700
C738        C  0.18890342  0.78412944  0.95947192     0.08500
C739        C  0.15433395  0.78793581  0.97615126    -0.13700
C740        C  0.15453546  0.78792554  0.00776133    -0.13700
C741        C  0.18931944  0.78412989  0.02375256     0.08500
C742        C  0.22358356  0.77828073  0.00730125    -0.13700
H743        H  0.25045803  0.77533120  0.96293545     0.12500
H744        H  0.12720540  0.79209110  0.96470728     0.12500
H745        H  0.12756661  0.79209487  0.01976096     0.12500
H746        H  0.25081233  0.77533761  0.01909146     0.12500
C747        C  0.21862267  0.79169886  0.71843407    -0.13700
C748        C  0.21341507  0.76562552  0.71015416     0.08500
C749        C  0.21222070  0.74669256  0.73310524    -0.13700
C750        C  0.21350991  0.75384054  0.76376610    -0.13700
C751        C  0.21545461  0.78008257  0.77206823     0.08500
C752        C  0.21931910  0.79888324  0.74913521    -0.13700
H753        H  0.21969287  0.80668144  0.70128498     0.12500
H754        H  0.20843167  0.72640764  0.72740911     0.12500
H755        H  0.21030709  0.73898614  0.78092156     0.12500
H756        H  0.22102272  0.81927321  0.75494164     0.12500
C757        C  0.21142695  0.74687375  0.24967460    -0.13700
C758        C  0.21272350  0.76605557  0.27252305     0.08500
C759        C  0.21807239  0.79200980  0.26413129    -0.13700
C760        C  0.21885932  0.79889805  0.23346751    -0.13700
C761        C  0.21501386  0.77992571  0.21061549     0.08500
C762        C  0.21292020  0.75373508  0.21895564    -0.13700
H763        H  0.20754576  0.72663312  0.25554810     0.12500
H764        H  0.21917442  0.80716965  0.28123402     0.12500
H765        H  0.22067294  0.81925943  0.22761935     0.12500
H766        H  0.20974821  0.73874328  0.20181211     0.12500
C767        C  0.15151379  0.76205008  0.47611079    -0.13700
C768        C  0.18661011  0.76484829  0.45992528     0.08500
C769        C  0.22130335  0.76933827  0.47596657    -0.13700
C770        C  0.22107274  0.76906323  0.50794006    -0.13700
C771        C  0.18611087  0.76438835  0.52394768     0.08500
C772        C  0.15124182  0.76190523  0.50766920    -0.13700
H773        H  0.12432197  0.75881905  0.46428179     0.12500
H774        H  0.24873852  0.77136286  0.46388984     0.12500
H775        H  0.24834864  0.77091198  0.51998533     0.12500
H776        H  0.12378916  0.75860653  0.51935201     0.12500
C777        C  0.99139643  0.79411120  0.13066992    -0.13700
C778        C  0.98149980  0.76759332  0.13024387     0.08500
C779        C  0.01158638  0.74915993  0.13054128    -0.13700
C780        C  0.05066884  0.75705166  0.13050622    -0.13700
C781        C  0.06061083  0.78355215  0.13020151     0.08500
C782        C  0.03052187  0.80201241  0.13065624    -0.13700
H783        H  0.96884134  0.80882478  0.13050504     0.12500
H784        H  0.00494751  0.72862880  0.13015887     0.12500
H785        H  0.07318371  0.74230695  0.13012885     0.12500
H786        H  0.03720434  0.82253739  0.13044848     0.12500
C787        C  0.99023601  0.79349366  0.85146817    -0.13700
C788        C  0.98024828  0.76698856  0.85184798     0.08500
C789        C  0.01034921  0.74854773  0.85151153    -0.13700
C790        C  0.04948248  0.75642917  0.85176966    -0.13700
C791        C  0.05949989  0.78293226  0.85227363     0.08500
C792        C  0.02939928  0.80138304  0.85161832    -0.13700
H793        H  0.96769296  0.80821887  0.85156528     0.12500
H794        H  0.00366526  0.72802111  0.85181907     0.12500
H795        H  0.07196495  0.74167700  0.85221113     0.12500
H796        H  0.03608368  0.82190702  0.85188033     0.12500
C797        C  0.82712949  0.77293455  0.97524620    -0.13700
C798        C  0.85394622  0.75760571  0.95876810     0.08500
C799        C  0.88198644  0.74345135  0.97478303    -0.13700
C800        C  0.88253803  0.74366047  0.00626706    -0.13700
C801        C  0.85500831  0.75798664  0.02304583     0.08500
C802        C  0.82763799  0.77310498  0.00728526    -0.13700
H803        H  0.80528388  0.78414782  0.96346257     0.12500
H804        H  0.90344413  0.73165583  0.96295881     0.12500
H805        H  0.90434595  0.73198370  0.01749388     0.12500
H806        H  0.80614810  0.78443366  0.01965598     0.12500
C807        C  0.00987826  0.80256885  0.63078299    -0.13700
C808        C  0.97874734  0.78498229  0.62834821     0.08500
C809        C  0.98714620  0.75827854  0.62653078    -0.13700
C810        C  0.02576358  0.74938974  0.62662076    -0.13700
C811        C  0.05691687  0.76700998  0.62854184     0.08500
C812        C  0.04849001  0.79368212  0.63086563    -0.13700
H813        H  0.00443339  0.82321694  0.63217482     0.12500
H814        H  0.96380002  0.74418218  0.62462121     0.12500
H815        H  0.03123674  0.72877151  0.62471813     0.12500
H816        H  0.07184963  0.80780985  0.63230597     0.12500
C817        C  0.82159532  0.75927387  0.71814189    -0.13700
C818        C  0.82324882  0.78565744  0.71072705     0.08500
C819        C  0.82222665  0.80424936  0.73423793    -0.13700
C820        C  0.82233648  0.79656109  0.76465206    -0.13700
C821        C  0.82403707  0.77017062  0.77199785     0.08500
C822        C  0.82230766  0.75159275  0.74852999    -0.13700
H823        H  0.82243670  0.74457631  0.70051185     0.12500
H824        H  0.82330990  0.82475476  0.72911590     0.12500
H825        H  0.82373476  0.81123635  0.78227914     0.12500
H826        H  0.82336233  0.73108675  0.75362708     0.12500
C827        C  0.98911226  0.75964016  0.35557338    -0.13700
C828        C  0.97998434  0.78623967  0.35695270     0.08500
C829        C  0.01064748  0.80428368  0.35832585    -0.13700
C830        C  0.04949636  0.79589865  0.35867760    -0.13700
C831        C  0.05861102  0.76928684  0.35757297     0.08500
C832        C  0.02796870  0.75125655  0.35583866    -0.13700
H833        H  0.96613243  0.74521697  0.35451587     0.12500
H834        H  0.00460908  0.82486718  0.35955139     0.12500
H835        H  0.07245225  0.81031833  0.36011184     0.12500
H836        H  0.03399593  0.73065920  0.35499494     0.12500
C837        C  0.81762563  0.76195908  0.26311210    -0.13700
C838        C  0.82626304  0.78765149  0.27120335     0.08500
C839        C  0.83087239  0.80622932  0.24806021    -0.13700
C840        C  0.82963577  0.79890550  0.21745479    -0.13700
C841        C  0.82431516  0.77281321  0.20947982     0.08500
C842        C  0.81697794  0.75457561  0.23251075    -0.13700
H843        H  0.81379097  0.74726546  0.28040608     0.12500
H844        H  0.83729988  0.82627445  0.25361704     0.12500
H845        H  0.83566745  0.81329238  0.20015417     0.12500
H846        H  0.81268560  0.73429502  0.22686318     0.12500
C847        C  0.88328701  0.80307544  0.47583940    -0.13700
C848        C  0.84996890  0.79559322  0.45967905     0.08500
C849        C  0.81688295  0.78707117  0.47594959    -0.13700
C850        C  0.81688488  0.78724818  0.50798372    -0.13700
C851        C  0.84995392  0.79596860  0.52386196     0.08500
C852        C  0.88326302  0.80329332  0.50734115    -0.13700
H853        H  0.90943765  0.80944393  0.46404951     0.12500
H854        H  0.79072950  0.78130450  0.46400235     0.12500
H855        H  0.79074281  0.78158116  0.52024434     0.12500
H856        H  0.90938660  0.80980179  0.51884001     0.12500
C857        C  0.78776779  0.62568296  0.11891998    -0.13700
C858        C  0.74679373  0.62717253  0.11762958     0.08500
C859        C  0.72916497  0.65167848  0.11639698    -0.13700
C860        C  0.75183716  0.67422790  0.11673159    -0.13700
C861        C  0.79273868  0.67284108  0.11849739     0.08500
C862        C  0.81050291  0.64831083  0.11949053    -0.13700
H863        H  0.80221626  0.60704917  0.11988575     0.12500
H864        H  0.69770404  0.65346052  0.11526421     0.12500
H865        H  0.73724097  0.69280097  0.11585632     0.12500
H866        H  0.84197023  0.64660775  0.12074614     0.12500
C867        C  0.72464086  0.65289595  0.86646039    -0.13700
C868        C  0.74257749  0.62843605  0.86654900     0.08500
C869        C  0.78353292  0.62703020  0.86542994    -0.13700
C870        C  0.80609455  0.64958626  0.86420561    -0.13700
C871        C  0.78825783  0.67406070  0.86423708     0.08500
C872        C  0.74726273  0.67550865  0.86541372    -0.13700
H873        H  0.69311657  0.65456262  0.86721234     0.12500
H874        H  0.79820857  0.60846044  0.86529196     0.12500
H875        H  0.83759448  0.64784215  0.86330406     0.12500
H876        H  0.73267162  0.69410765  0.86542261     0.12500
C877        C  0.64938534  0.54228286  0.97730251    -0.13700
C878        C  0.68418189  0.53850052  0.96092496     0.08500
C879        C  0.71866263  0.53315066  0.97686900    -0.13700
C880        C  0.71848665  0.53320053  0.00885826    -0.13700
C881        C  0.68385768  0.53863989  0.02497074     0.08500
C882        C  0.64924789  0.54242547  0.00883674    -0.13700
H883        H  0.62227528  0.54617220  0.96564740     0.12500
H884        H  0.74592384  0.03036251  0.96471334     0.12500
H885        H  0.74560547  0.03045362  0.02089858     0.12500
H886        H  0.62207417  0.54644295  0.02069820     0.12500
C887        C  0.72659833  0.90230231  0.61547900    -0.13700
C888        C  0.74445119  0.92681481  0.61486073     0.08500
C889        C  0.78544350  0.92830060  0.61513885    -0.13700
C890        C  0.80807605  0.90578353  0.61646728    -0.13700
C891        C  0.79023079  0.88130056  0.61727424     0.08500
C892        C  0.74924747  0.87977106  0.61658914    -0.13700
H893        H  0.69507771  0.90053165  0.61533839     0.12500
H894        H  0.80006350  0.94690424  0.61472025     0.12500
H895        H  0.83958612  0.90755154  0.61682634     0.12500
H896        H  0.73464568  0.86115452  0.61718597     0.12500
C897        C  0.70404230  0.54954402  0.71905487    -0.13700
C898        C  0.70808770  0.52359788  0.70991611     0.08500
C899        C  0.71432100  0.50452052  0.73213971    -0.13700
C900        C  0.71397457  0.51097593  0.76302619    -0.13700
C901        C  0.70678629  0.53657461  0.77225413     0.08500
C902        C  0.70311454  0.55594777  0.74997612    -0.13700
H903        H  0.69907934  0.56460086  0.70245423     0.12500
H904        H  0.71772339  0.48437158  0.72568083     0.12500
H905        H  0.71695382  0.49570574  0.77964976     0.12500
H906        H  0.69784182  0.57592188  0.75647113     0.12500
C907        C  0.74872927  0.87909951  0.36483347    -0.13700
C908        C  0.78968613  0.88098136  0.36537564     0.08500
C909        C  0.80699381  0.90564199  0.36612680    -0.13700
C910        C  0.78383705  0.92796634  0.36645279    -0.13700
C911        C  0.74288244  0.92608989  0.36581971     0.08500
C912        C  0.72558127  0.90142446  0.36492029    -0.13700
H913        H  0.73453726  0.86034826  0.36413212     0.12500
H914        H  0.83846254  0.90769237  0.36656359     0.12500
H915        H  0.79803512  0.94671629  0.36705907     0.12500
H916        H  0.69411546  0.89936428  0.36435255     0.12500
C917        C  0.70542699  0.54682238  0.26552380    -0.13700
C918        C  0.70678470  0.52065429  0.27386773     0.08500
C919        C  0.71057360  0.00156755  0.25109133    -0.13700
C920        C  0.71060900  0.00842756  0.22041602    -0.13700
C921        C  0.70620875  0.53444982  0.21205819     0.08500
C922        C  0.70487389  0.55364745  0.23487036    -0.13700
H923        H  0.70229218  0.56188454  0.28261782     0.12500
H924        H  0.71177648  0.98119815  0.25698996     0.12500
H925        H  0.71164630  0.99326736  0.20329966     0.12500
H926        H  0.70169508  0.57392581  0.22900752     0.12500
C927        C  0.64710754  0.01441901  0.47614452    -0.13700
C928        C  0.68123859  0.51962560  0.45953717     0.08500
C929        C  0.71476095  0.52785555  0.47520455    -0.13700
C930        C  0.71477825  0.52847707  0.50726399    -0.13700
C931        C  0.68122756  0.52097167  0.52368968     0.08500
C932        C  0.64704382  0.01518756  0.50764889    -0.13700
H933        H  0.62060327  0.00851481  0.46472575     0.12500
H934        H  0.74145075  0.53208327  0.46285639     0.12500
H935        H  0.74151681  0.53311897  0.51908946     0.12500
H936        H  0.62046774  0.00979927  0.51953192     0.12500
C937        C  0.24877657  0.92483650  0.10983402    -0.13700
C938        C  0.28952884  0.92508760  0.11336370     0.08500
C939        C  0.30904954  0.90147922  0.11770851    -0.13700
C940        C  0.28819454  0.87812270  0.11872297    -0.13700
C941        C  0.24736185  0.87794284  0.11561170     0.08500
C942        C  0.22792761  0.90153425  0.11106239    -0.13700
H943        H  0.23288566  0.94270583  0.10645033     0.12500
H944        H  0.34042691  0.90107286  0.12061395     0.12500
H945        H  0.30396756  0.86023837  0.12230286     0.12500
H946        H  0.19652246  0.90198905  0.10841437     0.12500
C947        C  0.50246955  0.00244579  0.12679136    -0.13700
C948        C  0.47295235  0.52122342  0.12475518     0.08500
C949        C  0.48373740  0.54756116  0.12369474    -0.13700
C950        C  0.52310542  0.55493292  0.12447610    -0.13700
C951        C  0.55263431  0.53613537  0.12632508     0.08500
C952        C  0.54181509  0.50981114  0.12759624    -0.13700
H953        H  0.49518166  0.98202325  0.12758911     0.12500
H954        H  0.46170345  0.56253304  0.12197784     0.12500
H955        H  0.53043874  0.57533253  0.12327836     0.12500
H956        H  0.56384329  0.99480743  0.12892125     0.12500
C957        C  0.25091254  0.92356084  0.87035576    -0.13700
C958        C  0.29193465  0.92309844  0.86963601     0.08500
C959        C  0.31106539  0.89903889  0.86865791    -0.13700
C960        C  0.28952602  0.87592449  0.86815239    -0.13700
C961        C  0.24844562  0.87646742  0.86844460     0.08500
C962        C  0.22944546  0.90052523  0.86968408    -0.13700
H963        H  0.23529528  0.94178056  0.87106879     0.12500
H964        H  0.34265938  0.89808103  0.86800443     0.12500
H965        H  0.30500164  0.85765611  0.86715935     0.12500
H966        H  0.19786237  0.90157588  0.87001375     0.12500
C967        C  0.54498657  0.50705193  0.85991012    -0.13700
C968        C  0.55515337  0.53340328  0.85731956     0.08500
C969        C  0.52546461  0.55172735  0.85302408    -0.13700
C970        C  0.48639813  0.54393576  0.85194118    -0.13700
C971        C  0.47613499  0.51766032  0.85520184     0.08500
C972        C  0.50588331  0.99925916  0.85887843    -0.13700
H973        H  0.56724485  0.99244447  0.86323038     0.12500
H974        H  0.53238066  0.57213287  0.85083933     0.12500
H975        H  0.46412024  0.55860845  0.84908370     0.12500
H976        H  0.49890305  0.97890998  0.86154430     0.12500
C977        C  0.30671292  0.52453315  0.97422110    -0.13700
C978        C  0.34227854  0.52081047  0.95858938     0.08500
C979        C  0.37686594  0.51937785  0.97531660    -0.13700
C980        C  0.37589661  0.51932743  0.00683286    -0.13700
C981        C  0.34035092  0.52078144  0.02267897     0.08500
C982        C  0.30574462  0.52453591  0.00626183    -0.13700
H983        H  0.27962064  0.52564618  0.96182008     0.12500
H984        H  0.40476367  0.51687238  0.96399875     0.12500
H985        H  0.40306648  0.51681072  0.01887282     0.12500
H986        H  0.27795137  0.52565663  0.01801096     0.12500
C987        C  0.24628769  0.62322508  0.61199097    -0.13700
C988        C  0.28732874  0.62409327  0.61233503     0.08500
C989        C  0.30597053  0.64834334  0.61231150    -0.13700
C990        C  0.28403834  0.67122989  0.61237492    -0.13700
C991        C  0.24297911  0.67034889  0.61269695     0.08500
C992        C  0.22436104  0.64610490  0.61233216    -0.13700
H993        H  0.23105696  0.60483296  0.61197741     0.12500
H994        H  0.33754049  0.64964259  0.61251523     0.12500
H995        H  0.29925205  0.68962973  0.61267627     0.12500
H996        H  0.19279175  0.64480604  0.61248744     0.12500
C997        C  0.48458683  0.50308870  0.62267996    -0.13700
C998        C  0.47345622  0.52905252  0.62771310     0.08500
C999        C  0.50229499  0.54735750  0.63486776    -0.13700
C1000       C  0.54149713  0.54007337  0.63609923    -0.13700
C1001       C  0.55286243  0.51434318  0.63007054     0.08500
C1002       C  0.52392895  0.99579007  0.62384323    -0.13700
H1003       H  0.46294202  0.98849034  0.61717378     0.12500
H1004       H  0.49463196  0.56741725  0.63909823     0.12500
H1005       H  0.56309438  0.55482509  0.64110472     0.12500
H1006       H  0.53179184  0.97585533  0.61900738     0.12500
C1007       C  0.31893804  0.50369880  0.71907955    -0.13700
C1008       C  0.31998557  0.52970644  0.70992545     0.08500
C1009       C  0.31846017  0.54933416  0.73223726    -0.13700
C1010       C  0.31837015  0.54312066  0.76311157    -0.13700
C1011       C  0.32044442  0.51716387  0.77225098     0.08500
C1012       C  0.31942133  0.49748541  0.74998401    -0.13700
H1013       H  0.32019581  0.98819128  0.70240455     0.12500
H1014       H  0.31907291  0.56959521  0.72580814     0.12500
H1015       H  0.31920685  0.55865818  0.77975561     0.12500
H1016       H  0.32079446  0.97724812  0.75645075     0.12500
C1017       C  0.28835843  0.67498466  0.37004971    -0.13700
C1018       C  0.24728127  0.67438968  0.36992443     0.08500
C1019       C  0.22817168  0.65034733  0.37038338    -0.13700
C1020       C  0.24948538  0.62734337  0.37054725    -0.13700
C1021       C  0.29046256  0.62782120  0.36995942     0.08500
C1022       C  0.30978538  0.65185327  0.36991706    -0.13700
H1023       H  0.30387927  0.69327472  0.36974739     0.12500
H1024       H  0.19659400  0.64926948  0.37035389     0.12500
H1025       H  0.23377497  0.60912959  0.37050557     0.12500
H1026       H  0.34139343  0.65276008  0.36954747     0.12500
C1027       C  0.48229553  0.50527532  0.35503814    -0.13700
C1028       C  0.47206379  0.53156991  0.35203734     0.08500
C1029       C  0.50183600  0.55001945  0.34835795    -0.13700
C1030       C  0.54100589  0.54244172  0.34861591    -0.13700
C1031       C  0.55130268  0.51626932  0.35268526     0.08500
C1032       C  0.52149896  0.99769558  0.35537153    -0.13700
H1033       H  0.45995966  0.99055486  0.35784744     0.12500
H1034       H  0.49489877  0.57037730  0.34590550     0.12500
H1035       H  0.56330758  0.55723951  0.34635082     0.12500
H1036       H  0.52848224  0.97740985  0.35843786     0.12500
C1037       C  0.31567153  0.50570293  0.26265176    -0.13700
C1038       C  0.31289391  0.53166185  0.27196303     0.08500
C1039       C  0.30750931  0.55097965  0.24987804    -0.13700
C1040       C  0.30791873  0.54467073  0.21893154    -0.13700
C1041       C  0.31434438  0.51899224  0.20957850     0.08500
C1042       C  0.31663650  0.49944277  0.23173739    -0.13700
H1043       H  0.31998330  0.49045184  0.27915695     0.12500
H1044       H  0.30509295  0.57118689  0.25649819     0.12500
H1045       H  0.30591486  0.56009733  0.20237475     0.12500
H1046       H  0.32126894  0.47939132  0.22517088     0.06100
C1047       C  0.31010593  0.52729836  0.47416564    -0.13700
C1048       C  0.34371065  0.53492189  0.45793235     0.08500
C1049       C  0.37799163  0.54027071  0.47399068    -0.13700
C1050       C  0.37834674  0.53968215  0.50546386    -0.13700
C1051       C  0.34441792  0.53376497  0.52202194     0.08500
C1052       C  0.31045181  0.52673481  0.50617538    -0.13700
H1053       H  0.28324105  0.02311501  0.46226777     0.12500
H1054       H  0.40454407  0.54584549  0.46218881     0.12500
H1055       H  0.40515193  0.54485814  0.51693403     0.12500
H1056       H  0.28383037  0.02217218  0.51845816     0.12500
loop_ 
_geom_bond_atom_site_label_1 
_geom_bond_atom_site_label_2 
_geom_bond_distance 
_geom_bond_site_symmetry_2 
_ccdc_geom_bond_type 
O1            C4   1.272       .  A
O1           Cd6   2.472       .  S
C2           O11   1.267       .  A
C2            O7   1.272       .  A
C2          C500   1.482       .  S
O3            C9   1.274       .  A
O3           Cd6   2.528       .  S
C4           O12   1.267       .  A
C4          C493   1.477       .  S
C5           O10   1.273       .  A
C5            O8   1.264       .  A
C5          C510   1.478       .  S
Cd6          O13   2.371       .  S
Cd6          O12   2.411       .  S
Cd6          O11   2.438       .  S
Cd6           O7   2.476       .  S
Cd6          O10   2.496       .  S
Cd6           O8   2.419       .  S
C9           O13   1.264       .  A
C9          C520   1.479       .  S
O14          C17   1.273       .  A
O14         Cd19   2.477       .  S
C15          O24   1.267       .  A
C15          O20   1.273       .  A
C15         C470   1.482       .  S
O16          C22   1.275       .  A
O16         Cd19   2.498       .  S
C17          O25   1.268       .  A
C17         C460   1.482       .  S
C18          O23   1.275       .  A
C18          O21   1.265       .  A
C18         C523   1.479       .  S
Cd19         O26   2.405       .  S
Cd19         O25   2.431       .  S
Cd19         O24   2.444       .  S
Cd19         O20   2.472       .  S
Cd19         O23   2.526       .  S
Cd19         O21   2.366       .  S
C22          O26   1.265       .  A
C22         C480   1.479       .  S
O27          C30   1.272       .  A
O27         Cd32   2.483       .  S
C28          O37   1.268       .  A
C28         O561   1.272   1_545  A
C28         C443   1.482       .  S
O29          C35   1.274       .  A
O29        Cd560   2.494   1_545  S
C30          O38   1.266       .  A
C30         C430   1.480       .  S
C31          O36   1.272       .  A
C31         O562   1.263       .  A
C31         C450   1.481       .  S
Cd32         O39   2.412       .  S
Cd32         O38   2.422       .  S
Cd32         O33   2.477       .  S
Cd32         O34   2.388       .  S
Cd32        O557   2.494       .  S
Cd32        O565   2.439       .  S
Cd32        O564   2.538       .  S
O33         C556   1.272       .  A
O34         C559   1.263       .  A
C35         O567   1.264   1_545  A
C35         C483   1.478       .  S
O36        Cd560   2.538   1_545  S
O37        Cd560   2.439   1_545  S
O39         C563   1.264       .  A
O40         C571   1.271       .  A
O40         Cd45   2.483       .  S
C41          O50   1.267       .  A
C41          O46   1.272       .  A
C41         C410   1.481       .  S
O42          C48   1.274       .  A
O42        Cd573   2.501   1_545  S
C43          O51   1.268       .  A
C43         O568   1.271   1_545  A
C43         C420   1.487       .  S
C44          O49   1.274       .  A
C44         O575   1.264   1_545  A
C44         C453   1.479       .  S
Cd45         O52   2.406       .  S
Cd45         O50   2.431       .  S
Cd45         O46   2.472       .  S
Cd45         O47   2.371       .  S
Cd45        O570   2.501       .  S
Cd45        O579   2.462       .  S
Cd45        O577   2.539       .  S
O47         C572   1.264       .  A
C48         O580   1.264   1_545  A
C48         C513   1.480       .  S
O49        Cd573   2.539   1_545  S
O51        Cd573   2.462   1_545  S
O52         C576   1.264       .  A
O53          C56   1.272       .  A
O53         Cd58   2.475       .  S
C54          O63   1.266       .  A
C54         O587   1.272   1_545  A
C54         C503   1.483       .  S
O55          C61   1.273       .  A
O55        Cd586   2.538   1_545  S
C56          O64   1.267       .  A
C56         C383   1.480       .  S
C57          O62   1.274       .  A
C57         O588   1.265   1_545  A
C57         C390   1.474       .  S
Cd58         O65   2.384       .  S
Cd58         O64   2.429       .  S
Cd58         O59   2.492       .  S
Cd58         O60   2.398       .  S
Cd58        O583   2.538       .  S
Cd58        O591   2.438       .  S
Cd58        O590   2.479       .  S
O59         C582   1.272       .  A
O60         C585   1.265       .  A
C61         O593   1.265   1_545  A
C61         C400   1.481       .  S
O62        Cd586   2.479   1_545  S
O63        Cd586   2.438   1_545  S
O65         C589   1.265       .  A
O66         C597   1.272       .  A
O66        Cd599   2.496       .  S
C67          O76   1.267       .  A
C67          O72   1.271       .  A
C67         C360   1.482       .  S
O68          C74   1.273       .  A
O68         Cd71   2.550   1_545  S
C69          O77   1.266       .  A
C69         O594   1.272   1_545  A
C69         C473   1.482       .  S
C70          O75   1.273       .  A
C70          O73   1.264   1_545  A
C70         C370   1.479       .  S
Cd71         O77   2.423   1_565  S
Cd71         O75   2.505   1_565  S
Cd71         O73   2.412       .  S
Cd71        O594   2.496       .  S
Cd71        O606   2.384   1_565  S
Cd71        O604   2.441       .  S
Cd71        O600   2.479       .  S
O72        Cd599   2.479       .  S
C74         O606   1.263       .  A
C74         C403   1.484       .  S
O76        Cd599   2.441       .  S
O78         C602   1.263       .  A
O78        Cd599   2.384       .  S
O79          C82   1.273       .  A
O79         Cd84   2.463       .  S
C80          O89   1.267       .  A
C80          O85   1.273       .  A
C80         C340   1.479       .  S
O81          C87   1.275       .  A
O81         Cd84   2.524       .  S
C82          O90   1.269       .  A
C82         C440   1.481       .  S
C83          O88   1.276       .  A
C83          O86   1.265       .  A
C83         C373   1.479       .  S
Cd84         O91   2.376       .  S
Cd84         O90   2.438       .  S
Cd84         O89   2.419       .  S
Cd84         O85   2.468       .  S
Cd84         O88   2.494       .  S
Cd84         O86   2.398       .  S
C87          O91   1.265       .  A
C87         C350   1.478       .  S
O92          C95   1.273       .  A
O92         Cd97   2.461       .  S
C93         O102   1.268       .  A
C93          O98   1.273       .  A
C93         C423   1.487       .  S
O94         C100   1.274       .  A
O94         Cd97   2.511       .  S
C95         O103   1.268       .  A
C95         C330   1.482       .  S
C96         O101   1.275       .  A
C96          O99   1.266       .  A
C96         C393   1.476       .  S
Cd97        O104   2.374       .  S
Cd97        O103   2.450       .  S
Cd97        O102   2.452       .  S
Cd97         O98   2.486       .  S
Cd97        O101   2.487       .  S
Cd97         O99   2.394       .  S
C100        O104   1.265       .  A
C100        C353   1.475       .  S
O105        C108   1.274       .  A
O105       Cd110   2.472       .  S
C106        O115   1.268       .  A
C106        O111   1.273       .  A
C106        C300   1.485       .  S
O107        C113   1.275       .  A
O107       Cd110   2.529       .  S
C108        O116   1.268       .  A
C108        C380   1.480       .  S
C109        O114   1.276       .  A
C109        O112   1.266       .  A
C109        C310   1.481       .  S
Cd110       O117   2.371       .  S
Cd110       O116   2.423       .  S
Cd110       O115   2.443       .  S
Cd110       O111   2.484       .  S
Cd110       O114   2.496       .  S
Cd110       O112   2.404       .  S
C113        O117   1.265       .  A
C113        C320   1.481       .  S
O118        C121   1.274       .  A
O118       Cd123   2.466       .  S
C119        O128   1.267       .  A
C119        O124   1.274       .  A
C119        C280   1.486       .  S
O120        C126   1.275       .  A
O120       Cd123   2.482       .  S
C121        O129   1.268       .  A
C121        C363   1.480       .  S
C122        O127   1.275       .  A
C122        O125   1.266       .  A
C122        C323   1.480       .  S
Cd123       O130   2.403       .  S
Cd123       O129   2.420       .  S
Cd123       O128   2.439       .  S
Cd123       O124   2.494       .  S
Cd123       O127   2.518       .  S
Cd123       O125   2.375       .  S
C126        O130   1.265       .  A
C126        C290   1.476       .  S
O131        C134   1.273       .  A
O131       Cd136   2.462       .  S
C132        O141   1.267       .  A
C132        O137   1.273       .  A
C132        C260   1.486       .  S
O133        C139   1.275       .  A
O133       Cd136   2.484       .  S
C134        O142   1.268       .  A
C134        C343   1.481       .  S
C135        O140   1.275       .  A
C135        O138   1.265       .  A
C135        C270   1.483       .  S
Cd136       O143   2.397       .  S
Cd136       O142   2.442       .  S
Cd136       O141   2.442       .  S
Cd136       O137   2.491       .  S
Cd136       O140   2.528       .  S
Cd136       O138   2.366       .  S
C139        O143   1.266       .  A
C139        C293   1.476       .  S
O144        C147   1.273       .  A
O144       Cd149   2.486       .  S
C145        O154   1.267       .  A
C145        O150   1.273       .  A
C145        C250   1.484       .  S
O146        C152   1.274       .  A
O146       Cd149   2.532       .  S
C147        O155   1.268       .  A
C147        C333   1.484       .  S
C148        O153   1.274       .  A
C148        O151   1.265       .  A
C148        C313   1.476       .  S
Cd149       O156   2.378       .  S
Cd149       O155   2.437       .  S
Cd149       O154   2.442       .  S
Cd149       O150   2.486       .  S
Cd149       O153   2.498       .  S
Cd149       O151   2.402       .  S
C152        O156   1.265       .  A
C152        C273   1.484       .  S
O157        C160   1.273       .  A
O157       Cd162   2.445       .  S
C158        O167   1.268       .  A
C158        O163   1.274       .  A
C158        C303   1.485       .  S
O159        C165   1.275       .  A
O159       Cd162   2.508       .  S
C160        O168   1.268       .  A
C160        C490   1.478       .  S
C161        O166   1.275       .  A
C161        O164   1.266       .  A
C161        C230   1.478       .  S
Cd162       O169   2.377       .  S
Cd162       O168   2.443       .  S
Cd162       O167   2.437       .  S
Cd162       O163   2.484       .  S
Cd162       O166   2.478       .  S
Cd162       O164   2.410       .  S
C165        O169   1.266       .  A
C165        C240   1.475       .  S
O170        C173   1.274       .  A
O170       Cd175   2.494       .  S
C171        O180   1.267       .  A
C171        O176   1.273       .  A
C171        C463   1.482       .  S
O172        C178   1.273       .  A
O172       Cd175   2.525       .  S
C173        O181   1.267       .  A
C173        C283   1.486       .  S
C174        O179   1.274       .  A
C174        O177   1.265       .  A
C174        C220   1.481       .  S
Cd175       O182   2.387       .  S
Cd175       O181   2.437       .  S
Cd175       O180   2.433       .  S
Cd175       O176   2.483       .  S
Cd175       O179   2.496       .  S
Cd175       O177   2.413       .  S
C178        O182   1.264       .  A
C178        C243   1.479       .  S
O183        C186   1.272       .  A
O183       Cd188   2.469       .  S
C184        O193   1.267       .  A
C184        O189   1.273       .  A
C184        C263   1.488       .  S
O185        C191   1.274       .  A
O185       Cd188   2.496       .  S
C186        O194   1.267       .  A
C186        C433   1.482       .  S
C187        O192   1.274       .  A
C187        O190   1.265       .  A
C187        C210   1.485       .  S
Cd188       O195   2.422       .  S
Cd188       O194   2.448       .  S
Cd188       O193   2.446       .  S
Cd188       O189   2.503       .  S
Cd188       O192   2.539       .  S
Cd188       O190   2.405       .  S
C191        O195   1.265       .  A
C191        C223   1.480       .  S
O196        C199   1.271       .  A
O196       Cd201   2.473       .  S
C197        O206   1.266       .  A
C197        O202   1.272       .  A
C197        C253   1.485       .  S
O198        C204   1.274       .  A
O198       Cd201   2.540       .  S
C199        O207   1.267       .  A
C199        C413   1.482       .  S
C200        O205   1.274       .  A
C200        O203   1.265       .  A
C200        C233   1.479       .  S
Cd201       O208   2.399       .  S
Cd201       O207   2.452       .  S
Cd201       O206   2.437       .  S
Cd201       O202   2.494       .  S
Cd201       O205   2.503       .  S
Cd201       O203   2.413       .  S
C204        O208   1.264       .  A
C204        C213   1.484       .  S
C209        C210   1.409       .  A
C209        C214   1.412   1_556  A
C209        H215   1.082       .  S
C210        C211   1.403       .  A
C211        C212   1.392   1_556  A
C211        H216   1.083       .  S
C212        C213   1.403       .  A
C212        H217   1.083       .  S
C213        C214   1.408       .  A
C214        H218   1.082       .  S
C219        C220   1.403       .  A
C219        C224   1.401       .  A
C219        H225   1.083       .  S
C220        C221   1.408       .  A
C221        C222   1.399       .  A
C221        H226   1.082       .  S
C222        C223   1.402       .  A
C222        H227   1.083       .  S
C223        C224   1.408       .  A
C224        H228   1.082       .  S
C229        C230   1.409       .  A
C229        C234   1.400       .  A
C229        H235   1.084       .  S
C230        C231   1.401       .  A
C231        C232   1.398       .  A
C231        H236   1.084       .  S
C232        C233   1.407       .  A
C232        H237   1.084       .  S
C233        C234   1.402       .  A
C234        H238   1.084       .  S
C239        C240   1.402       .  A
C239        C244   1.390       .  A
C239        H245   1.083       .  S
C240        C241   1.406       .  A
C241        C242   1.408       .  A
C241        H246   1.082       .  S
C242        C243   1.407       .  A
C242        H247   1.082       .  S
C243        C244   1.404       .  A
C244        H248   1.083       .  S
C249        C250   1.408       .  A
C249        C254   1.401   1_655  A
C249        H255   1.084       .  S
C250        C251   1.403   1_655  A
C251        C252   1.400       .  A
C251        H256   1.082       .  S
C252        C253   1.408       .  A
C252        H257   1.084       .  S
C253        C254   1.404       .  A
C254        H258   1.082       .  S
C259        C260   1.408       .  A
C259        C264   1.402   1_655  A
C259        H265   1.084       .  S
C260        C261   1.404   1_655  A
C261        C262   1.401       .  A
C261        H266   1.083       .  S
C262        C263   1.409       .  A
C262        H267   1.084       .  S
C263        C264   1.405       .  A
C264        H268   1.082       .  S
C269        C270   1.408       .  A
C269        C274   1.411   1_556  A
C269        H275   1.083       .  S
C270        C271   1.403       .  A
C271        C272   1.387   1_556  A
C271        H276   1.084       .  S
C272        C273   1.403       .  A
C272        H277   1.084       .  S
C273        C274   1.409       .  A
C274        H278   1.083       .  S
C279        C280   1.404   1_455  A
C279        C284   1.401       .  A
C279        H285   1.082       .  S
C280        C281   1.409       .  A
C281        C282   1.401   1_655  A
C281        H286   1.084       .  S
C282        C283   1.404       .  A
C282        H287   1.082       .  S
C283        C284   1.409       .  A
C284        H288   1.084       .  S
C289        C290   1.401       .  A
C289        C294   1.398       .  A
C289        H295   1.083       .  S
C290        C291   1.408       .  A
C291        C292   1.398       .  A
C291        H296   1.082       .  S
C292        C293   1.401       .  A
C292        H297   1.083       .  S
C293        C294   1.408       .  A
C294        H298   1.082       .  S
C299        C300   1.408       .  A
C299        C304   1.401   1_655  A
C299        H305   1.084       .  S
C300        C301   1.404   1_655  A
C301        C302   1.401       .  A
C301        H306   1.082       .  S
C302        C303   1.408       .  A
C302        H307   1.084       .  S
C303        C304   1.404       .  A
C304        H308   1.082       .  S
C309        C310   1.402       .  A
C309        C314   1.399       .  A
C309        H315   1.084       .  S
C310        C311   1.410       .  A
C311        C312   1.399       .  A
C311        H316   1.084       .  S
C312        C313   1.401       .  A
C312        H317   1.084       .  S
C313        C314   1.407       .  A
C314        H318   1.084       .  S
C319        C320   1.403       .  A
C319        C324   1.387       .  A
C319        H325   1.084       .  S
C320        C321   1.408       .  A
C321        C322   1.411       .  A
C321        H326   1.083       .  S
C322        C323   1.408       .  A
C322        H327   1.083       .  S
C323        C324   1.402       .  A
C324        H328   1.084       .  S
C329        C330   1.408       .  A
C329        C334   1.402       .  A
C329        H335   1.082       .  S
C330        C331   1.403       .  A
C331        C332   1.398       .  A
C331        H336   1.084       .  S
C332        C333   1.407       .  A
C332        H337   1.082       .  S
C333        C334   1.405       .  A
C334        H338   1.084       .  S
C339        C340   1.404       .  A
C339        C344   1.400       .  A
C339        H345   1.084       .  S
C340        C341   1.406       .  A
C341        C342   1.397       .  A
C341        H346   1.082       .  S
C342        C343   1.403       .  A
C342        H347   1.084       .  S
C343        C344   1.408       .  A
C344        H348   1.082       .  S
C349        C350   1.403       .  A
C349        C354   1.389   1_556  A
C349        H355   1.084       .  S
C350        C351   1.407       .  A
C351        C352   1.409   1_556  A
C351        H884   1.083       .  S
C352        C353   1.407       .  A
C352        H885   1.083       .  S
C353        C354   1.401       .  A
C354        H358   1.085       .  S
H356        C879   1.083       .  S
H357        C880   1.083       .  S
C359        C360   1.404       .  A
C359        C364   1.399       .  A
C359        H365   1.084       .  S
C360        C361   1.407       .  A
C361        C362   1.399       .  A
C361        H366   1.082       .  S
C362        C363   1.402       .  A
C362        H367   1.084       .  S
C363        C364   1.408       .  A
C364        H368   1.082       .  S
C369        C370   1.402       .  A
C369        C374   1.400       .  A
C369        H375   1.083       .  S
C370        C371   1.408       .  A
C371        C372   1.399       .  A
C371        H376   1.082   1_545  S
C372        C373   1.401       .  A
C372        H377   1.083   1_545  S
C373        C374   1.409       .  A
C374        H378   1.083       .  S
C379        C380   1.408       .  A
C379        C384   1.399       .  A
C379        H385   1.082       .  S
C380        C381   1.403       .  A
C381        C382   1.399       .  A
C381        H386   1.084       .  S
C382        C383   1.408       .  A
C382        H387   1.082       .  S
C383        C384   1.403       .  A
C384        H388   1.084       .  S
C389        C390   1.401       .  A
C389        C394   1.397       .  A
C389        H395   1.084       .  S
C390        C919   1.408       .  A
C391        C392   1.398       .  A
C391        C918   1.408       .  A
C391        H396   1.084       .  S
C392        C921   1.401       .  A
C392        H397   1.084       .  S
C393        C394   1.408       .  A
C393        C920   1.401       .  A
C394        H398   1.084       .  S
C399        C404   1.388       .  A
C399        C928   1.401       .  A
C399        H405   1.084       .  S
C400        C401   1.409       .  A
C400        C927   1.401       .  A
C401        C402   1.412       .  A
C401        H406   1.083       .  S
C402        C403   1.409       .  A
C402        H407   1.083       .  S
C403        C932   1.403       .  A
C404        C931   1.403       .  A
C404        H408   1.084       .  S
C409        C410   1.407       .  A
C409        C414   1.398       .  A
C409        H415   1.082       .  S
C410        C411   1.404       .  A
C411        C412   1.400       .  A
C411        H416   1.084       .  S
C412        C413   1.407       .  A
C412        H417   1.082       .  S
C413        C414   1.403       .  A
C414        H418   1.084       .  S
C419        C948   1.405       .  A
C419        C952   1.401       .  A
C419        H425   1.083       .  S
C420        C421   1.408       .  A
C420        C947   1.405       .  A
C421        C422   1.402       .  A
C421        H426   1.084       .  S
C422        C423   1.405       .  A
C422        H427   1.082       .  S
C423        C424   1.408       .  A
C424        C947   1.401       .  A
C424        H956   1.084   1_545  S
H428        C952   1.084       .  S
C429        C430   1.407       .  A
C429        C434   1.397       .  A
C429        H435   1.082       .  S
C430        C431   1.404       .  A
C431        C432   1.401       .  A
C431        H436   1.084       .  S
C432        C433   1.409       .  A
C432        H437   1.082       .  S
C433        C434   1.402       .  A
C434        H438   1.084       .  S
C439        C440   1.407       .  A
C439        C972   1.400   1_545  A
C439        H973   1.084   1_545  S
C440        C441   1.404       .  A
C441        C442   1.399       .  A
C441        H446   1.083       .  S
C442        C443   1.407       .  A
C442        H447   1.084       .  S
C443        C972   1.404   1_545  A
C444        C967   1.400       .  A
C444        C971   1.404       .  A
C444        H448   1.082       .  S
H445        C967   1.084       .  S
C449        C450   1.409       .  A
C449        C454   1.411   1_556  A
C449        H455   1.082       .  S
C450        C451   1.402       .  A
C451        C452   1.388   1_556  A
C451        H456   1.083       .  S
C452        C453   1.402       .  A
C452        H457   1.083       .  S
C453        C454   1.408       .  A
C454        H458   1.082       .  S
C459        C460   1.408       .  A
C459        C464   1.399       .  A
C459        H465   1.082       .  S
C460        C461   1.403       .  A
C461        C462   1.400       .  A
C461        H466   1.084       .  S
C462        C463   1.408       .  A
C462        H467   1.082       .  S
C463        C464   1.403       .  A
C464        H468   1.084       .  S
C469        C470   1.409       .  A
C469       C1002   1.402   1_545  A
C469       H1003   1.084   1_545  S
C470        C471   1.402       .  A
C471        C472   1.397       .  A
C471        H476   1.082       .  S
C472        C473   1.407       .  A
C472        H477   1.084       .  S
C473       C1002   1.405   1_545  A
C474        C997   1.402       .  A
C474       C1001   1.405       .  A
C474        H478   1.083       .  S
H475        C997   1.084       .  S
C479        C480   1.402       .  A
C479        C484   1.400   1_545  A
C479       H1013   1.084   1_545  S
C480        C481   1.408       .  A
C481        C482   1.398       .  A
C481        H486   1.084       .  S
C482        C483   1.401       .  A
C482        H487   1.084       .  S
C483        C484   1.409   1_545  A
C484       H1016   1.084       .  S
H485       C1007   1.084       .  S
H488       C1012   1.084       .  S
C489        C490   1.408       .  A
C489        C494   1.401       .  A
C489        H495   1.082       .  S
C490        C491   1.401       .  A
C491        C492   1.394       .  A
C491        H496   1.084       .  S
C492        C493   1.405       .  A
C492        H497   1.082       .  S
C493        C494   1.404       .  A
C494        H498   1.084       .  S
C499        C500   1.408       .  A
C499       C1032   1.400   1_545  A
C499       H1033   1.084   1_545  S
C500        C501   1.403       .  A
C501        C502   1.399       .  A
C501        H506   1.082       .  S
C502        C503   1.408       .  A
C502        H507   1.084       .  S
C503       C1032   1.404   1_545  A
C504       C1027   1.400       .  A
C504       C1031   1.404       .  A
C504        H508   1.082       .  S
H505       C1027   1.084       .  S
C509        C510   1.401       .  A
C509        C514   1.398   1_545  A
C509        H515   1.084   1_545  S
C510        C511   1.408       .  A
C511        C512   1.400       .  A
C511        H516   1.084       .  S
C512        C513   1.402       .  A
C512        H517   1.084       .  S
C513        C514   1.409   1_545  A
C514        H518   1.084       .  S
C519        C520   1.408       .  A
C519        C524   1.410       .  A
C519       H1053   1.083       .  S
C520        C521   1.402       .  A
C521        C522   1.387       .  A
C521        H526   1.084       .  S
C522        C523   1.402       .  A
C522        H527   1.084       .  S
C523        C524   1.408       .  A
C524       H1056   1.083       .  S
H525       C1047   1.083       .  S
H528       C1052   1.083       .  S
O529        C532   1.272       .  A
O529       Cd534   2.472       .  S
C530        O539   1.267       .  A
C530        O535   1.272       .  A
C530       C1028   1.482       .  S
O531        C537   1.274       .  A
O531       Cd534   2.528       .  S
C532        O540   1.267       .  A
C532       C1021   1.477       .  S
C533        O538   1.273       .  A
C533        O536   1.264       .  A
C533       C1038   1.478       .  S
Cd534       O541   2.371       .  S
Cd534       O540   2.411       .  S
Cd534       O539   2.438       .  S
Cd534       O535   2.476       .  S
Cd534       O538   2.496       .  S
Cd534       O536   2.419       .  S
C537        O541   1.264       .  A
C537       C1048   1.479       .  S
O542        C545   1.273       .  A
O542       Cd547   2.477       .  S
C543        O552   1.267       .  A
C543        O548   1.273       .  A
C543        C998   1.482       .  S
O544        C550   1.275       .  A
O544       Cd547   2.498       .  S
C545        O553   1.268       .  A
C545        C988   1.482       .  S
C546        O551   1.275       .  A
C546        O549   1.265       .  A
C546       C1051   1.479       .  S
Cd547       O554   2.405       .  S
Cd547       O553   2.431       .  S
Cd547       O552   2.444       .  S
Cd547       O548   2.472       .  S
Cd547       O551   2.526       .  S
Cd547       O549   2.367       .  S
C550        O554   1.265       .  A
C550       C1008   1.479       .  S
O555        C558   1.272       .  A
O555       Cd560   2.483       .  S
C556        O565   1.268       .  A
C556        C971   1.482       .  S
O557        C563   1.274       .  A
C558        O566   1.266       .  A
C558        C958   1.480       .  S
C559        O564   1.272       .  A
C559        C978   1.481       .  S
Cd560       O567   2.412       .  S
Cd560       O566   2.422       .  S
Cd560       O561   2.477       .  S
Cd560       O562   2.388   1_565  S
C563       C1011   1.478       .  S
O568       Cd573   2.483       .  S
C569        O578   1.267       .  A
C569        O574   1.272       .  A
C569        C938   1.481       .  S
O570        C576   1.274       .  A
C571        O579   1.268       .  A
C571        C948   1.487       .  S
C572        O577   1.274       .  A
C572        C981   1.479       .  S
Cd573       O580   2.406       .  S
Cd573       O578   2.431       .  S
Cd573       O574   2.472       .  S
Cd573       O575   2.371       .  S
C576       C1041   1.480       .  S
O581        C584   1.272       .  A
O581       Cd586   2.475       .  S
C582        O591   1.266       .  A
C582       C1031   1.483       .  S
O583        C589   1.273       .  A
C584        O592   1.267       .  A
C584        C911   1.480       .  S
C585        O590   1.274       .  A
C585        C918   1.474       .  S
Cd586       O593   2.384       .  S
Cd586       O592   2.429       .  S
Cd586       O587   2.492       .  S
Cd586       O588   2.398       .  S
C589        C928   1.481       .  S
C595        O604   1.267       .  A
C595        O600   1.271       .  A
C595        C888   1.482       .  S
O596        C602   1.273       .  A
O596       Cd599   2.550       .  S
C597        O605   1.266       .  A
C597       C1001   1.482       .  S
C598        O603   1.273       .  A
C598        O601   1.264       .  A
C598        C898   1.479       .  S
Cd599       O605   2.423       .  S
Cd599       O603   2.505       .  S
Cd599       O601   2.412       .  S
C602        C931   1.484       .  S
O607        C610   1.273       .  A
O607       Cd612   2.463       .  S
C608        O617   1.267       .  A
C608        O613   1.273       .  A
C608        C868   1.479       .  S
O609        C615   1.275       .  A
O609       Cd612   2.524       .  S
C610        O618   1.269       .  A
C610        C968   1.481       .  S
C611        O616   1.276       .  A
C611        O614   1.265       .  A
C611        C901   1.479       .  S
Cd612       O619   2.376       .  S
Cd612       O618   2.438       .  S
Cd612       O617   2.419       .  S
Cd612       O613   2.468       .  S
Cd612       O616   2.494       .  S
Cd612       O614   2.398       .  S
C615        O619   1.265       .  A
C615        C878   1.478       .  S
O620        C623   1.273       .  A
O620       Cd625   2.461       .  S
C621        O630   1.268       .  A
C621        O626   1.273       .  A
C621        C951   1.487       .  S
O622        C628   1.274       .  A
O622       Cd625   2.511       .  S
C623        O631   1.268       .  A
C623        C858   1.482       .  S
C624        O629   1.275       .  A
C624        O627   1.266       .  A
C624        C921   1.476       .  S
Cd625       O632   2.374       .  S
Cd625       O631   2.450       .  S
Cd625       O630   2.452       .  S
Cd625       O626   2.486       .  S
Cd625       O629   2.487       .  S
Cd625       O627   2.394       .  S
C628        O632   1.265       .  A
C628        C881   1.475       .  S
O633        C636   1.274       .  A
O633       Cd638   2.472       .  S
C634        O643   1.268       .  A
C634        O639   1.273       .  A
C634        C828   1.485       .  S
O635        C641   1.275       .  A
O635       Cd638   2.529       .  S
C636        O644   1.268       .  A
C636        C908   1.480       .  S
C637        O642   1.276       .  A
C637        O640   1.266       .  A
C637        C838   1.481       .  S
Cd638       O645   2.371       .  S
Cd638       O644   2.423       .  S
Cd638       O643   2.443       .  S
Cd638       O639   2.484       .  S
Cd638       O642   2.496       .  S
Cd638       O640   2.404       .  S
C641        O645   1.265       .  A
C641        C848   1.481       .  S
O646        C649   1.274       .  A
O646       Cd651   2.466       .  S
C647        O656   1.267       .  A
C647        O652   1.274       .  A
C647        C808   1.486       .  S
O648        C654   1.275       .  A
O648       Cd651   2.482       .  S
C649        O657   1.268       .  A
C649        C891   1.480       .  S
C650        O655   1.275       .  A
C650        O653   1.266       .  A
C650        C851   1.480       .  S
Cd651       O658   2.403       .  S
Cd651       O657   2.420       .  S
Cd651       O656   2.439       .  S
Cd651       O652   2.494       .  S
Cd651       O655   2.518       .  S
Cd651       O653   2.375       .  S
C654        O658   1.265       .  A
C654        C818   1.476       .  S
O659        C662   1.273       .  A
O659       Cd664   2.462       .  S
C660        O669   1.267       .  A
C660        O665   1.273       .  A
C660        C788   1.486       .  S
O661        C667   1.275       .  A
O661       Cd664   2.484       .  S
C662        O670   1.268       .  A
C662        C871   1.481       .  S
C663        O668   1.275       .  A
C663        O666   1.265       .  A
C663        C798   1.483       .  S
Cd664       O671   2.397       .  S
Cd664       O670   2.442       .  S
Cd664       O669   2.442       .  S
Cd664       O665   2.491       .  S
Cd664       O668   2.528       .  S
Cd664       O666   2.366       .  S
C667        O671   1.266       .  A
C667        C821   1.476       .  S
O672        C675   1.273       .  A
O672       Cd677   2.486       .  S
C673        O682   1.267       .  A
C673        O678   1.273       .  A
C673        C778   1.484       .  S
O674        C680   1.274       .  A
O674       Cd677   2.532       .  S
C675        O683   1.268       .  A
C675        C861   1.484       .  S
C676        O681   1.274       .  A
C676        O679   1.265       .  A
C676        C841   1.476       .  S
Cd677       O684   2.378       .  S
Cd677       O683   2.437       .  S
Cd677       O682   2.442       .  S
Cd677       O678   2.486       .  S
Cd677       O681   2.498       .  S
Cd677       O679   2.402       .  S
C680        O684   1.265       .  A
C680        C801   1.484       .  S
O685        C688   1.273       .  A
O685       Cd690   2.445       .  S
C686        O695   1.268       .  A
C686        O691   1.274       .  A
C686        C831   1.485       .  S
O687        C693   1.275       .  A
O687       Cd690   2.508       .  S
C688        O696   1.268       .  A
C688       C1018   1.478       .  S
C689        O694   1.275       .  A
C689        O692   1.266       .  A
C689        C758   1.478       .  S
Cd690       O697   2.377       .  S
Cd690       O696   2.443       .  S
Cd690       O695   2.437       .  S
Cd690       O691   2.484       .  S
Cd690       O694   2.478       .  S
Cd690       O692   2.410       .  S
C693        O697   1.266       .  A
C693        C768   1.475       .  S
O698        C701   1.274       .  A
O698       Cd703   2.494       .  S
C699        O708   1.267       .  A
C699        O704   1.273       .  A
C699        C991   1.482       .  S
O700        C706   1.273       .  A
O700       Cd703   2.525       .  S
C701        O709   1.267       .  A
C701        C811   1.486       .  S
C702        O707   1.274       .  A
C702        O705   1.265       .  A
C702        C748   1.481       .  S
Cd703       O710   2.387       .  S
Cd703       O709   2.437       .  S
Cd703       O708   2.433       .  S
Cd703       O704   2.482       .  S
Cd703       O707   2.496       .  S
Cd703       O705   2.413       .  S
C706        O710   1.264       .  A
C706        C771   1.479       .  S
O711        C714   1.272       .  A
O711       Cd716   2.469       .  S
C712        O721   1.267       .  A
C712        O717   1.273       .  A
C712        C791   1.488       .  S
O713        C719   1.274       .  A
O713       Cd716   2.496       .  S
C714        O722   1.267       .  A
C714        C961   1.482       .  S
C715        O720   1.274       .  A
C715        O718   1.265       .  A
C715        C738   1.485       .  S
Cd716       O723   2.422       .  S
Cd716       O722   2.448       .  S
Cd716       O721   2.446       .  S
Cd716       O717   2.503       .  S
Cd716       O720   2.539       .  S
Cd716       O718   2.405       .  S
C719        O723   1.265       .  A
C719        C751   1.480       .  S
O724        C727   1.271       .  A
O724       Cd729   2.473       .  S
C725        O734   1.266       .  A
C725        O730   1.272       .  A
C725        C781   1.485       .  S
O726        C732   1.274       .  A
O726       Cd729   2.540       .  S
C727        O735   1.267       .  A
C727        C941   1.482       .  S
C728        O733   1.274       .  A
C728        O731   1.265       .  A
C728        C761   1.479       .  S
Cd729       O736   2.399       .  S
Cd729       O735   2.452       .  S
Cd729       O734   2.437       .  S
Cd729       O730   2.494       .  S
Cd729       O733   2.503       .  S
Cd729       O731   2.413       .  S
C732        O736   1.264       .  A
C732        C741   1.484       .  S
C737        C738   1.409       .  A
C737        C742   1.412   1_556  A
C737        H743   1.082       .  S
C738        C739   1.403       .  A
C739        C740   1.392   1_556  A
C739        H744   1.083       .  S
C740        C741   1.403       .  A
C740        H745   1.083       .  S
C741        C742   1.408       .  A
C742        H746   1.082       .  S
C747        C748   1.403       .  A
C747        C752   1.401       .  A
C747        H753   1.083       .  S
C748        C749   1.408       .  A
C749        C750   1.399       .  A
C749        H754   1.082       .  S
C750        C751   1.402       .  A
C750        H755   1.083       .  S
C751        C752   1.408       .  A
C752        H756   1.082       .  S
C757        C758   1.409       .  A
C757        C762   1.400       .  A
C757        H763   1.084       .  S
C758        C759   1.401       .  A
C759        C760   1.398       .  A
C759        H764   1.084       .  S
C760        C761   1.407       .  A
C760        H765   1.084       .  S
C761        C762   1.402       .  A
C762        H766   1.084       .  S
C767        C768   1.402       .  A
C767        C772   1.390       .  A
C767        H773   1.083       .  S
C768        C769   1.406       .  A
C769        C770   1.408       .  A
C769        H774   1.082       .  S
C770        C771   1.407       .  A
C770        H775   1.082       .  S
C771        C772   1.404       .  A
C772        H776   1.083       .  S
C777        C778   1.408       .  A
C777        C782   1.401   1_655  A
C777        H783   1.084       .  S
C778        C779   1.403   1_655  A
C779        C780   1.400       .  A
C779        H784   1.082       .  S
C780        C781   1.408       .  A
C780        H785   1.084       .  S
C781        C782   1.404       .  A
C782        H786   1.082       .  S
C787        C788   1.408       .  A
C787        C792   1.402   1_655  A
C787        H793   1.084       .  S
C788        C789   1.404   1_655  A
C789        C790   1.401       .  A
C789        H794   1.083       .  S
C790        C791   1.409       .  A
C790        H795   1.084       .  S
C791        C792   1.405       .  A
C792        H796   1.082       .  S
C797        C798   1.408       .  A
C797        C802   1.411   1_556  A
C797        H803   1.083       .  S
C798        C799   1.403       .  A
C799        C800   1.387   1_556  A
C799        H804   1.084       .  S
C800        C801   1.403       .  A
C800        H805   1.084       .  S
C801        C802   1.409       .  A
C802        H806   1.083       .  S
C807        C808   1.404   1_455  A
C807        C812   1.401       .  A
C807        H813   1.082       .  S
C808        C809   1.409       .  A
C809        C810   1.401   1_655  A
C809        H814   1.084       .  S
C810        C811   1.404       .  A
C810        H815   1.082       .  S
C811        C812   1.409       .  A
C812        H816   1.084       .  S
C817        C818   1.401       .  A
C817        C822   1.398       .  A
C817        H823   1.083       .  S
C818        C819   1.408       .  A
C819        C820   1.398       .  A
C819        H824   1.082       .  S
C820        C821   1.401       .  A
C820        H825   1.083       .  S
C821        C822   1.408       .  A
C822        H826   1.082       .  S
C827        C828   1.408       .  A
C827        C832   1.401   1_655  A
C827        H833   1.084       .  S
C828        C829   1.404   1_655  A
C829        C830   1.401       .  A
C829        H834   1.082       .  S
C830        C831   1.408       .  A
C830        H835   1.084       .  S
C831        C832   1.404       .  A
C832        H836   1.082       .  S
C837        C838   1.402       .  A
C837        C842   1.399       .  A
C837        H843   1.084       .  S
C838        C839   1.410       .  A
C839        C840   1.399       .  A
C839        H844   1.084       .  S
C840        C841   1.401       .  A
C840        H845   1.084       .  S
C841        C842   1.407       .  A
C842        H846   1.084       .  S
C847        C848   1.403       .  A
C847        C852   1.387       .  A
C847        H853   1.084       .  S
C848        C849   1.408       .  A
C849        C850   1.411       .  A
C849        H854   1.083       .  S
C850        C851   1.408       .  A
C850        H855   1.083       .  S
C851        C852   1.402       .  A
C852        H856   1.084       .  S
C857        C858   1.408       .  A
C857        C862   1.402       .  A
C857        H863   1.082       .  S
C858        C859   1.403       .  A
C859        C860   1.398       .  A
C859        H864   1.084       .  S
C860        C861   1.407       .  A
C860        H865   1.082       .  S
C861        C862   1.405       .  A
C862        H866   1.084       .  S
C867        C868   1.404       .  A
C867        C872   1.400       .  A
C867        H873   1.084       .  S
C868        C869   1.406       .  A
C869        C870   1.397       .  A
C869        H874   1.082       .  S
C870        C871   1.403       .  A
C870        H875   1.084       .  S
C871        C872   1.408       .  A
C872        H876   1.082       .  S
C877        C878   1.403       .  A
C877        C882   1.389   1_556  A
C877        H883   1.084       .  S
C878        C879   1.407       .  A
C879        C880   1.409   1_556  A
C880        C881   1.407       .  A
C881        C882   1.401       .  A
C882        H886   1.085       .  S
C887        C888   1.404       .  A
C887        C892   1.399       .  A
C887        H893   1.084       .  S
C888        C889   1.407       .  A
C889        C890   1.399       .  A
C889        H894   1.082       .  S
C890        C891   1.402       .  A
C890        H895   1.084       .  S
C891        C892   1.408       .  A
C892        H896   1.082       .  S
C897        C898   1.402       .  A
C897        C902   1.400       .  A
C897        H903   1.083       .  S
C898        C899   1.408       .  A
C899        C900   1.399       .  A
C899        H904   1.082       .  S
C900        C901   1.401       .  A
C900        H905   1.083       .  S
C901        C902   1.409       .  A
C902        H906   1.083       .  S
C907        C908   1.408       .  A
C907        C912   1.399       .  A
C907        H913   1.082       .  S
C908        C909   1.403       .  A
C909        C910   1.399       .  A
C909        H914   1.084       .  S
C910        C911   1.408       .  A
C910        H915   1.082       .  S
C911        C912   1.403       .  A
C912        H916   1.084       .  S
C917        C918   1.401       .  A
C917        C922   1.397       .  A
C917        H923   1.084       .  S
C919        C920   1.398       .  A
C919        H924   1.084   1_545  S
C920        H925   1.084   1_545  S
C921        C922   1.408       .  A
C922        H926   1.084       .  S
C927        C932   1.388       .  A
C927        H933   1.084       .  S
C928        C929   1.409       .  A
C929        C930   1.412       .  A
C929        H934   1.083       .  S
C930        C931   1.409       .  A
C930        H935   1.083       .  S
C932        H936   1.084       .  S
C937        C938   1.407       .  A
C937        C942   1.398       .  A
C937        H943   1.082       .  S
C938        C939   1.404       .  A
C939        C940   1.400       .  A
C939        H944   1.084       .  S
C940        C941   1.407       .  A
C940        H945   1.082       .  S
C941        C942   1.403       .  A
C942        H946   1.084       .  S
C947        H953   1.082   1_545  S
C948        C949   1.408       .  A
C949        C950   1.402       .  A
C949        H954   1.084       .  S
C950        C951   1.405       .  A
C950        H955   1.082       .  S
C951        C952   1.408       .  A
C957        C958   1.407       .  A
C957        C962   1.397       .  A
C957        H963   1.082       .  S
C958        C959   1.404       .  A
C959        C960   1.401       .  A
C959        H964   1.084       .  S
C960        C961   1.409       .  A
C960        H965   1.082       .  S
C961        C962   1.402       .  A
C962        H966   1.084       .  S
C967        C968   1.407       .  A
C968        C969   1.404       .  A
C969        C970   1.399       .  A
C969        H974   1.083       .  S
C970        C971   1.407       .  A
C970        H975   1.084       .  S
C972        H976   1.082       .  S
C977        C978   1.409       .  A
C977        C982   1.411   1_556  A
C977        H983   1.082       .  S
C978        C979   1.402       .  A
C979        C980   1.388   1_556  A
C979        H984   1.083       .  S
C980        C981   1.402       .  A
C980        H985   1.083       .  S
C981        C982   1.408       .  A
C982        H986   1.082       .  S
C987        C988   1.408       .  A
C987        C992   1.399       .  A
C987        H993   1.082       .  S
C988        C989   1.403       .  A
C989        C990   1.400       .  A
C989        H994   1.084       .  S
C990        C991   1.408       .  A
C990        H995   1.082       .  S
C991        C992   1.403       .  A
C992        H996   1.084       .  S
C997        C998   1.409       .  A
C998        C999   1.402       .  A
C999       C1000   1.397       .  A
C999       H1004   1.082       .  S
C1000      C1001   1.407       .  A
C1000      H1005   1.084       .  S
C1002      H1006   1.083       .  S
C1007      C1008   1.402       .  A
C1007      C1012   1.400       .  A
C1008      C1009   1.408       .  A
C1009      C1010   1.398       .  A
C1009      H1014   1.084       .  S
C1010      C1011   1.401       .  A
C1010      H1015   1.084       .  S
C1011      C1012   1.409       .  A
C1017      C1018   1.408       .  A
C1017      C1022   1.401       .  A
C1017      H1023   1.082       .  S
C1018      C1019   1.401       .  A
C1019      C1020   1.394       .  A
C1019      H1024   1.084       .  S
C1020      C1021   1.405       .  A
C1020      H1025   1.082       .  S
C1021      C1022   1.404       .  A
C1022      H1026   1.084       .  S
C1027      C1028   1.408       .  A
C1028      C1029   1.403       .  A
C1029      C1030   1.399       .  A
C1029      H1034   1.082       .  S
C1030      C1031   1.408       .  A
C1030      H1035   1.084       .  S
C1032      H1036   1.082       .  S
C1037      C1038   1.401       .  A
C1037      C1042   1.398       .  A
C1037      H1043   1.084       .  S
C1038      C1039   1.408       .  A
C1039      C1040   1.400       .  A
C1039      H1044   1.084       .  S
C1040      C1041   1.402       .  A
C1040      H1045   1.084       .  S
C1041      C1042   1.409       .  A
C1042      H1046   1.084       .  S
C1047      C1048   1.408       .  A
C1047      C1052   1.410       .  A
C1048      C1049   1.402       .  A
C1049      C1050   1.387       .  A
C1049      H1054   1.084       .  S
C1050      C1051   1.402       .  A
C1050      H1055   1.084       .  S
C1051      C1052   1.408       .  A
