geometry optimzed in LAMMPS
_audit_creation_date              2020-12-01 
_audit_creation_method            'lammps2cif' 
_symmetry_space_group_name_H-M    'P1' 
_symmetry_Int_Tables_number       1 
_symmetry_cell_setting            triclinic 
loop_ 
_symmetry_equiv_pos_as_xyz 
  x,y,z 
_cell_length_a                    50.43427738 
_cell_length_b                    50.544318547834834 
_cell_length_c                    50.41934832075608 
_cell_angle_alpha                 89.99867925518443 
_cell_angle_beta                  90.03132842507534 
_cell_angle_gamma                 89.96858432560862 
loop_ 
_atom_site_label 
_atom_site_type_symbol 
_atom_site_fract_x 
_atom_site_fract_y 
_atom_site_fract_z 
_atom_site_charge 
O1          O  0.79840435  0.52672366  0.75807727    -0.72800
O2          O  0.75762343  0.47160706  0.79827097    -0.73800
O3          O  0.79810370  0.47073446  0.75895746    -0.62400
O4          O  0.75787174  0.52766672  0.79744129    -0.70800
O5          O  0.72720829  0.52725404  0.76580632    -0.70400
O6          O  0.76733501  0.47059430  0.72741420    -0.61600
O7          O  0.72729573  0.47109798  0.76629523    -0.74100
O8          O  0.76739605  0.52669293  0.72676146    -0.72900
Cu9        Cu  0.77909399  0.49921524  0.77932248     1.04600
Cu10       Cu  0.74624612  0.49892223  0.74548602     1.04300
C11         C  0.78929811  0.53531344  0.73605478     0.93400
C12         C  0.73611016  0.46256950  0.78843642     0.92500
C13         C  0.78896039  0.46169818  0.73712673     0.84700
C14         C  0.73615787  0.53634796  0.78767800     0.91000
O15         O  0.51803715  0.75322814  0.75744040    -0.72800
O16         O  0.57371531  0.71168352  0.79696743    -0.73800
O17         O  0.57433415  0.75255685  0.75795507    -0.62400
O18         O  0.51764514  0.71238830  0.79677647    -0.70800
O19         O  0.51761884  0.68195195  0.76499276    -0.70400
O20         O  0.57409385  0.72201941  0.72627762    -0.61600
O21         O  0.57370342  0.68154786  0.76490483    -0.74100
O22         O  0.51770688  0.72228001  0.72617583    -0.72900
Cu23       Cu  0.54591924  0.73357689  0.77841040     1.04600
Cu24       Cu  0.54576040  0.70094575  0.74447181     1.04300
C25         C  0.50907573  0.74411024  0.73554785     0.93400
C26         C  0.58237289  0.69003087  0.78711421     0.92500
C27         C  0.58320848  0.74348859  0.73603977     0.84700
C28         C  0.50896674  0.69068952  0.78711896     0.91000
O29         O  0.76020699  0.75006657  0.57592226    -0.72800
O30         O  0.79751773  0.70892924  0.51838640    -0.73800
O31         O  0.75813549  0.74964530  0.51978817    -0.62400
O32         O  0.79981064  0.70934646  0.57457726    -0.70800
O33         O  0.76816513  0.67883830  0.57568993    -0.70400
O34         O  0.72670183  0.71891250  0.52095070    -0.61600
O35         O  0.76575014  0.67855350  0.51936766    -0.74100
O36         O  0.72893960  0.71919599  0.57719854    -0.72900
Cu37       Cu  0.78004355  0.73056366  0.54712333     1.04600
Cu38       Cu  0.74630717  0.69781297  0.54837281     1.04300
C39         C  0.73849213  0.74113034  0.58542754     0.93400
C40         C  0.78752367  0.68729097  0.50986213     0.92500
C41         C  0.73581418  0.74067380  0.51187309     0.84700
C42         C  0.79055130  0.68763139  0.58363289     0.91000
N43         N  0.46376634  0.78554237  0.38553277    -0.27100
N44         N  0.45851935  0.76409652  0.39959394    -0.35000
C45         C  0.47454556  0.74439022  0.39146401     0.01200
C46         C  0.49042169  0.75397640  0.37124021     0.07200
C47         C  0.48302058  0.78006584  0.36796373    -0.05900
H48         H  0.47461397  0.72460027  0.39964657     0.07900
H49         H  0.49140194  0.79422512  0.35423374     0.09100
Cu50       Cu  0.42977203  0.76301671  0.42912303     0.44200
Cu51       Cu  0.44602198  0.82181597  0.39193731     0.42000
Cu52       Cu  0.39610939  0.82481588  0.44359296     0.43900
N53         N  0.39951170  0.76684390  0.45686563    -0.34500
N54         N  0.38662942  0.78912862  0.46172520    -0.28800
C55         C  0.36822761  0.78465208  0.48059039    -0.04900
C56         C  0.36988141  0.75836321  0.48809350     0.07300
C57         C  0.38989747  0.74772633  0.47267926     0.01100
H58         H  0.35516930  0.79957463  0.48872381     0.08800
H59         H  0.39704421  0.72753975  0.47299469     0.07900
N60         N  0.41104370  0.85777879  0.42400922    -0.36000
N61         N  0.42892721  0.85663633  0.40491303    -0.28200
C62         C  0.43463043  0.88131597  0.39675433    -0.03400
C63         C  0.41983767  0.89903194  0.41166198     0.05200
C64         C  0.40500610  0.88325512  0.42860641     0.03300
H65         H  0.44834853  0.88579086  0.38092493     0.08400
H66         H  0.39112465  0.88981238  0.44357806     0.07300
N67         N  0.46301440  0.20971227  0.38954036    -0.27100
N68         N  0.45892163  0.23118506  0.40390670    -0.35000
C69         C  0.47438288  0.25078750  0.39486052     0.01200
C70         C  0.48869206  0.24118690  0.37364136     0.07200
C71         C  0.48106940  0.21511097  0.37071951    -0.05900
H72         H  0.47494100  0.27059378  0.40298655     0.07900
H73         H  0.48836429  0.20100857  0.35631794     0.09100
Cu74       Cu  0.43158192  0.23341850  0.43404323     0.44200
Cu75       Cu  0.44448901  0.17411473  0.39701078     0.42000
Cu76       Cu  0.39203476  0.17502948  0.44634012     0.43900
N77         N  0.39988476  0.23260939  0.45966363    -0.34500
N78         N  0.38473919  0.21164792  0.46367213    -0.28800
C79         C  0.36560125  0.21806598  0.48112577    -0.04900
C80         C  0.36913343  0.24421948  0.48843215     0.07300
C81         C  0.39101828  0.25280287  0.47449296     0.01100
H82         H  0.35070986  0.20452164  0.48846420     0.08800
H83         H  0.39996636  0.27224611  0.47515192     0.07900
N84         N  0.40606048  0.14079060  0.42824416    -0.36000
N85         N  0.42518700  0.14067777  0.41034134    -0.28200
C86         C  0.43048079  0.11561023  0.40332437    -0.03400
C87         C  0.41405288  0.09893516  0.41757297     0.05200
C88         C  0.39864786  0.11566920  0.43304983     0.03300
H89         H  0.44569948  0.10992719  0.38931917     0.08400
H90         H  0.38310718  0.11014735  0.44672703     0.07300
O91         O  0.51662710  0.24600160  0.33622463    -0.72800
O92         O  0.57184586  0.28521428  0.29491862    -0.73800
O93         O  0.57262902  0.24535466  0.33522051    -0.62400
O94         O  0.51563409  0.28593815  0.29621447    -0.70800
O95         O  0.51672026  0.31698994  0.32734423    -0.70400
O96         O  0.57328099  0.27663830  0.36613219    -0.61600
O97         O  0.57304239  0.31598252  0.32637645    -0.74100
O98         O  0.51725693  0.27752783  0.36694856    -0.72900
Cu99       Cu  0.54415082  0.26452638  0.31450403     1.04600
Cu100      Cu  0.54511687  0.29786984  0.34773818     1.04300
C101        C  0.50838992  0.25558200  0.35814843     0.93400
C102        C  0.58117368  0.30676348  0.30426200     0.92500
C103        C  0.58170719  0.25460837  0.35701841     0.84700
C104        C  0.50719930  0.30784056  0.30573448     0.91000
N105        N  0.62939980  0.78765305  0.38892274    -0.27100
N106        N  0.63293023  0.76665512  0.40417570    -0.35000
C107        C  0.61784152  0.74668904  0.39512857     0.01200
C108        C  0.60428012  0.75544842  0.37300812     0.07200
C109        C  0.61204614  0.78149291  0.36958605    -0.05900
H110        H  0.61692507  0.72720263  0.40396522     0.07900
H111        H  0.60527965  0.79508088  0.35444145     0.09100
Cu112      Cu  0.65894113  0.76533877  0.43584175     0.44200
Cu113      Cu  0.64796657  0.82379393  0.39567313     0.42000
Cu114      Cu  0.69954567  0.82282753  0.44620326     0.43900
N115        N  0.68985992  0.76651189  0.46273333    -0.34500
N116        N  0.70554075  0.78722828  0.46582401    -0.28800
C117        C  0.72448393  0.78121556  0.48364726    -0.04900
C118        C  0.72032476  0.75555084  0.49223673     0.07300
C119        C  0.69818984  0.74685632  0.47864356     0.01100
H120        H  0.73991575  0.79462422  0.49008164     0.08800
H121        H  0.68899943  0.72756118  0.47994100     0.07900
N122        N  0.68735342  0.85674924  0.42643892    -0.36000
N123        N  0.66861121  0.85721847  0.40810699    -0.28200
C124        C  0.66476061  0.88240918  0.40034840    -0.03400
C125        C  0.68198920  0.89865036  0.41435031     0.05200
C126        C  0.69583362  0.88157542  0.43085701     0.03300
H127        H  0.65020883  0.88848352  0.38579583     0.08400
H128        H  0.71022216  0.88678442  0.44586855     0.07300
N129        N  0.70792911  0.21112807  0.46145079    -0.27100
N130        N  0.69198300  0.23169104  0.45856409    -0.35000
C131        C  0.70001795  0.25119366  0.47487021     0.01200
C132        C  0.72215810  0.24250902  0.48858871     0.07200
C133        C  0.72665501  0.21704016  0.47954630    -0.05900
H134        H  0.69039064  0.27024377  0.47666765     0.07900
H135        H  0.74201744  0.20357728  0.48606928     0.09100
Cu136      Cu  0.66030348  0.23209672  0.43218660     0.44200
Cu137      Cu  0.70209287  0.17553380  0.44175146     0.42000
Cu138      Cu  0.64886885  0.17294806  0.39271996     0.43900
N139        N  0.63250676  0.22963396  0.40183959    -0.34500
N140        N  0.62885970  0.20850049  0.38678832    -0.28800
C141        C  0.61036525  0.21407862  0.36829731    -0.04900
C142        C  0.60193933  0.23988955  0.37204551     0.07300
C143        C  0.61631075  0.24906941  0.39350987     0.01100
H144        H  0.60339630  0.20029283  0.35343459     0.08800
H145        H  0.61530655  0.26858471  0.40227287     0.07900
N146        N  0.67029596  0.14004385  0.40532676    -0.36000
N147        N  0.68958618  0.14111922  0.42307442    -0.28200
C148        C  0.69813622  0.11643819  0.42817969    -0.03400
C149        C  0.68339536  0.09883381  0.41314236     0.05200
C150        C  0.66613969  0.11458603  0.39866616     0.05700
H151        H  0.71376189  0.11174424  0.44210088     0.08400
H152        H  0.65094016  0.10793783  0.38506296     0.07300
O153        O  0.76763523  0.31812060  0.51949370    -0.72800
O154        O  0.72760960  0.27814177  0.57452854    -0.73800
O155        O  0.76742121  0.31722567  0.57570231    -0.62400
O156        O  0.72786374  0.27868831  0.51823355    -0.70800
O157        O  0.75875978  0.24738251  0.51809586    -0.70400
O158        O  0.79865697  0.28624708  0.57538757    -0.61600
O159        O  0.75831884  0.24661476  0.57446603    -0.74100
O160        O  0.79900110  0.28724713  0.51917761    -0.72900
Cu161      Cu  0.74657459  0.29909640  0.54697376     1.04600
Cu162      Cu  0.77978862  0.26573135  0.54675026     1.04300
C163        C  0.78965203  0.30922300  0.51080361     0.93400
C164        C  0.73658311  0.25621192  0.58326716     0.92500
C165        C  0.78926199  0.30788699  0.58453224     0.84700
C166        C  0.73700175  0.25688847  0.50921063     0.91000
N167        N  0.63221901  0.78861708  0.70857925    -0.27100
N168        N  0.63543841  0.76789548  0.69292610    -0.35000
C169        C  0.61858260  0.74871301  0.70037809     0.01200
C170        C  0.60416727  0.75776575  0.72183905     0.07200
C171        C  0.61334520  0.78310936  0.72661185    -0.05900
H172        H  0.61698062  0.72958652  0.69087631     0.07900
H173        H  0.60640785  0.79674964  0.74162457     0.09100
Cu174      Cu  0.66292700  0.76651280  0.66248324     0.44200
Cu175      Cu  0.65216806  0.82391140  0.70274996     0.42000
Cu176      Cu  0.70265266  0.82476822  0.65049337     0.43900
N177        N  0.69406611  0.76758151  0.63575384    -0.34500
N178        N  0.70936728  0.78846336  0.63184794    -0.28800
C179        C  0.72798408  0.78221412  0.61369467    -0.04900
C180        C  0.72399779  0.75623798  0.60578389     0.07300
C181        C  0.70231577  0.74766114  0.62014095     0.01100
H182        H  0.74287556  0.79574785  0.60633585     0.08800
H183        H  0.69311839  0.72834482  0.61926862     0.07900
N184        N  0.68799181  0.85852768  0.66939745    -0.36000
N185        N  0.66970568  0.85797373  0.68819998    -0.28200
C186        C  0.66284721  0.88288549  0.69451221    -0.03400
C187        C  0.67734155  0.90009308  0.67888399     0.05200
C188        C  0.69333076  0.88395577  0.66342584     0.03300
H189        H  0.64803366  0.88800914  0.70914419     0.08400
H190        H  0.70702426  0.89022834  0.64816294     0.07300
N191        N  0.62666513  0.21276733  0.70392726    -0.27100
N192        N  0.63219756  0.23440385  0.69027966    -0.35000
C193        C  0.61709251  0.25443098  0.69921775     0.01200
C194        C  0.60150850  0.24494775  0.71963086     0.07200
C195        C  0.60810471  0.21851976  0.72217346    -0.05900
H196        H  0.61748025  0.27438289  0.69144796     0.07900
H197        H  0.59957476  0.20435243  0.73580177     0.09100
Cu198      Cu  0.66040296  0.23578636  0.66062213     0.44200
Cu199      Cu  0.64347118  0.17613210  0.69601715     0.42000
Cu200      Cu  0.69796944  0.17578195  0.64921341     0.43900
N201        N  0.69153271  0.23295549  0.63415935    -0.34500
N202        N  0.70597065  0.21140467  0.63059969    -0.28800
C203        C  0.72464312  0.21635478  0.61219612    -0.04900
C204        C  0.72154490  0.24217826  0.60372399     0.07300
C205        C  0.70042866  0.25210402  0.61802376     0.01100
H206        H  0.73887749  0.20202070  0.60502981     0.08800
H207        H  0.69204402  0.27177383  0.61674169     0.07900
N208        N  0.68204337  0.14189984  0.66592387    -0.36000
N209        N  0.66191319  0.14190632  0.68268692    -0.28200
C210        C  0.65539391  0.11672722  0.68836199    -0.03400
C211        C  0.67207163  0.10000857  0.67430929     0.05200
C212        C  0.68890506  0.11677667  0.66054730     0.03300
H213        H  0.63928493  0.11102281  0.70131217     0.08400
H214        H  0.70505765  0.11127071  0.64757915     0.07300
N215        N  0.46259377  0.79025442  0.70509315    -0.27100
N216        N  0.45706137  0.76832320  0.69191886    -0.35000
C217        C  0.47265065  0.74868967  0.70086426     0.01200
C218        C  0.48860415  0.75865131  0.72078956     0.07200
C219        C  0.48169656  0.78505939  0.72304672    -0.05900
H220        H  0.47233012  0.72860792  0.69343701     0.07900
H221        H  0.49031376  0.79954752  0.73628363     0.09100
Cu222      Cu  0.42836362  0.76580157  0.66260558     0.44200
Cu223      Cu  0.44469255  0.82628983  0.69667313     0.42000
Cu224      Cu  0.39029178  0.82477447  0.64899655     0.43900
N225        N  0.39766830  0.76730459  0.63532196    -0.34500
N226        N  0.38305947  0.78861214  0.63104462    -0.28800
C227        C  0.36500265  0.78318168  0.61217380    -0.04900
C228        C  0.36866291  0.75731208  0.60403951     0.07300
C229        C  0.38949333  0.74782077  0.61910986     0.01100
H230        H  0.35087485  0.79728676  0.60434874     0.08800
H231        H  0.39822880  0.72828482  0.61822160     0.07900
N232        N  0.40564372  0.85918676  0.66523778    -0.36000
N233        N  0.42554548  0.85973345  0.68230815    -0.28200
C234        C  0.43174933  0.88506111  0.68755552    -0.03400
C235        C  0.41513378  0.90130817  0.67290131     0.05200
C236        C  0.39866363  0.88415771  0.65921262     0.03300
H237        H  0.44721273  0.89108088  0.70113001     0.08400
H238        H  0.38323063  0.88942978  0.64526424     0.07300
N239        N  0.46307424  0.21208835  0.70289776    -0.27100
N240        N  0.45882382  0.23344390  0.68835382    -0.35000
C241        C  0.47396675  0.25329349  0.69754906     0.01200
C242        C  0.48824080  0.24405507  0.71903682     0.07200
C243        C  0.48087238  0.21786313  0.72193941    -0.05900
H244        H  0.47443298  0.27303372  0.68926165     0.07900
H245        H  0.48823526  0.20391202  0.73646331     0.09100
Cu246      Cu  0.43175429  0.23526298  0.65745178     0.44200
Cu247      Cu  0.44503760  0.17605032  0.69536438     0.42000
Cu248      Cu  0.39134776  0.17762940  0.64676186     0.43900
N249        N  0.40025903  0.23440421  0.63100110    -0.34500
N250        N  0.38471903  0.21359976  0.62772811    -0.28800
C251        C  0.36569742  0.21967228  0.60995797    -0.04900
C252        C  0.36959437  0.24548428  0.60158785     0.07300
C253        C  0.39171679  0.25416491  0.61529015     0.01100
H254        H  0.35050785  0.20613254  0.60323336     0.08800
H255        H  0.40091619  0.27345583  0.61399254     0.07900
N256        N  0.40498907  0.14336026  0.66520830    -0.36000
N257        N  0.42478594  0.14281912  0.68238808    -0.28200
C258        C  0.43006242  0.11755986  0.68884068    -0.03400
C259        C  0.41252904  0.10122256  0.67537848     0.05200
C260        C  0.39703295  0.11840162  0.66047979     0.03300
H261        H  0.44634549  0.11166328  0.70146398     0.08400
H262        H  0.38143092  0.11314740  0.64672958     0.07300
O263        O  0.57261781  0.24986565  0.75638113    -0.72800
O264        O  0.51634779  0.28858362  0.79704477    -0.73800
O265        O  0.51665884  0.24926445  0.75634842    -0.62400
O266        O  0.57243084  0.28925601  0.79682640    -0.70800
O267        O  0.57229510  0.32046028  0.76579424    -0.70400
O268        O  0.51633341  0.28096696  0.72583723    -0.61600
O269        O  0.51598910  0.31994499  0.76618212    -0.74100
O270        O  0.57256811  0.28146267  0.72574938    -0.72900
Cu271      Cu  0.54451442  0.26814540  0.77775198     1.04600
Cu272      Cu  0.54424912  0.30182208  0.74483734     1.04300
C273        C  0.58136260  0.25949105  0.73466460     0.93400
C274        C  0.50739924  0.31044233  0.78803332     0.92500
C275        C  0.50791793  0.25879237  0.73455452     0.84700
C276        C  0.58120389  0.31108796  0.78755546     0.91000
O277        O  0.32426836  0.32215087  0.57187383    -0.72800
O278        O  0.36338919  0.28137878  0.51636958    -0.73800
O279        O  0.32419090  0.32153069  0.51571622    -0.62400
O280        O  0.36361875  0.28204861  0.57255592    -0.70800
O281        O  0.33229223  0.25121231  0.57296745    -0.70400
O282        O  0.29244389  0.29112027  0.51601152    -0.61600
O283        O  0.33209052  0.25047305  0.51682830    -0.74100
O284        O  0.29245936  0.29176236  0.57207844    -0.72900
Cu285      Cu  0.34494308  0.30282650  0.54412053     1.04600
Cu286      Cu  0.31120047  0.27003991  0.54449718     1.04300
C287        C  0.30205972  0.31359583  0.58045214     0.93400
C288        C  0.35407741  0.25940871  0.50804713     0.92500
C289        C  0.30205082  0.31277313  0.50708674     0.84700
C290        C  0.35437378  0.26028639  0.58151448     0.91000
N291        N  0.70578648  0.41578234  0.83386998    -0.27100
N292        N  0.69211602  0.41096285  0.81202636    -0.35000
C293        C  0.70095695  0.42675655  0.79252952     0.01200
C294        C  0.72123720  0.44212036  0.80259394     0.07200
C295        C  0.72389417  0.43463882  0.82881634    -0.05900
H296        H  0.69313664  0.42705816  0.77254342     0.07900
H297        H  0.73750628  0.44269953  0.84330484     0.09100
Cu298      Cu  0.66199410  0.38336577  0.80965254     0.44200
Cu299      Cu  0.69800978  0.39759480  0.86973734     0.42000
Cu300      Cu  0.64708050  0.34688274  0.86950191     0.43900
N301        N  0.63356119  0.35401370  0.81179641    -0.34500
N302        N  0.62864490  0.34004710  0.83341301    -0.28800
C303        C  0.60944437  0.32236537  0.82807845    -0.04900
C304        C  0.60181242  0.32562336  0.80194949     0.07300
C305        C  0.61744451  0.34584099  0.79222065     0.01100
H306        H  0.60128433  0.30858268  0.84231603     0.08800
H307        H  0.61721951  0.35396387  0.77236532     0.07900
N308        N  0.66612120  0.36008861  0.90344412    -0.36000
N309        N  0.68474690  0.37847323  0.90344615    -0.28200
C310        C  0.69194389  0.38360238  0.92858233    -0.03400
C311        C  0.67719064  0.36763160  0.94527072     0.05200
C312        C  0.66090763  0.35309874  0.92862947     0.03300
H313        H  0.70596012  0.39876767  0.93427341     0.08400
H314        H  0.64592442  0.33892212  0.93442026     0.07300
N315        N  0.70248686  0.41416361  0.25742417    -0.27100
N316        N  0.69028115  0.40770085  0.27968111    -0.35000
C317        C  0.70015387  0.42225884  0.29967410     0.01200
C318        C  0.71971397  0.43846712  0.28952269     0.07200
C319        C  0.72078706  0.43278887  0.26271112    -0.05900
H320        H  0.69337492  0.42130714  0.32000917     0.07900
H321        H  0.73317463  0.44222294  0.24797433     0.09100
Cu322      Cu  0.66057381  0.37973393  0.28164883     0.44200
Cu323      Cu  0.69190134  0.39875916  0.22081684     0.42000
Cu324      Cu  0.64253089  0.34620367  0.22074864     0.43900
N325        N  0.63251741  0.35015427  0.27934876    -0.34500
N326        N  0.62645767  0.33718799  0.25739452    -0.28800
C327        C  0.60759519  0.31920683  0.26291595    -0.04900
C328        C  0.60142634  0.32129566  0.28953550     0.07300
C329        C  0.61752008  0.34106357  0.29933428     0.01100
H330        H  0.59848846  0.30623777  0.24847536     0.08800
H331        H  0.61820737  0.34843375  0.31947167     0.07900
N332        N  0.65933795  0.36188251  0.18676944    -0.36000
N333        N  0.67696321  0.38123515  0.18676948    -0.28200
C334        C  0.68326926  0.38718396  0.16156683    -0.03400
C335        C  0.66919623  0.37057288  0.14489769     0.05200
C336        C  0.65405737  0.35493465  0.16158697     0.03300
H337        H  0.69732968  0.40228873  0.15581851     0.08400
H338        H  0.63986423  0.33992619  0.15592317     0.07300
O339        O  0.72526141  0.46811783  0.32549961    -0.72800
O340        O  0.76405819  0.52606132  0.36349452    -0.73800
O341        O  0.72488696  0.52424163  0.32340548    -0.62400
O342        O  0.76426617  0.47004882  0.36564616    -0.70800
O343        O  0.79579900  0.46912906  0.33491002    -0.70400
O344        O  0.75609395  0.52353323  0.29233821    -0.61600
O345        O  0.79573576  0.52512504  0.33293272    -0.74100
O346        O  0.75631154  0.46765204  0.29426879    -0.72900
Cu347      Cu  0.74352541  0.49714816  0.34554820     1.04600
Cu348      Cu  0.77711913  0.49630490  0.31251180     1.04300
C349        C  0.73453930  0.45894210  0.30380421     0.93400
C350        C  0.78609053  0.53456520  0.35437899     0.92500
C351        C  0.73412915  0.53239852  0.30130081     0.84700
C352        C  0.78632742  0.46118401  0.35702903     0.91000
N353        N  0.70692651  0.58454055  0.83259474    -0.27100
N354        N  0.69112646  0.58713624  0.81180262    -0.35000
C355        C  0.69920297  0.57049815  0.79262810     0.01200
C356        C  0.72117911  0.55690711  0.80175754     0.07200
C357        C  0.72557732  0.56630206  0.82712718    -0.05900
H358        H  0.68978440  0.56849828  0.77344687     0.07900
H359        H  0.74088844  0.56002853  0.84079233     0.09100
Cu360      Cu  0.65970806  0.61359253  0.80988767     0.44200
Cu361      Cu  0.70161788  0.60470112  0.86800047     0.42000
Cu362      Cu  0.64909704  0.65350049  0.86797886     0.43900
N363        N  0.63245826  0.64431443  0.81154041    -0.34500
N364        N  0.62922124  0.65950601  0.83263116    -0.28800
C365        C  0.61106766  0.67823418  0.82718055    -0.04900
C366        C  0.60239340  0.67453965  0.80144920     0.07300
C367        C  0.61628333  0.65284289  0.79212502     0.01100
H368        H  0.60450024  0.69322230  0.84102219     0.08800
H369        H  0.61493899  0.64405739  0.77260151     0.07900
N370        N  0.66926214  0.64174437  0.90167994    -0.36000
N371        N  0.68871303  0.62420781  0.90177374    -0.28200
C372        C  0.69628794  0.61980102  0.92697758    -0.03400
C373        C  0.68056165  0.63501821  0.94350872     0.05200
C374        C  0.66382065  0.64884420  0.92675958     0.03300
H375        H  0.71120984  0.60559274  0.93290896     0.08400
H376        H  0.64838958  0.66262471  0.93235874     0.07300
N377        N  0.70393447  0.57812992  0.25436582    -0.27100
N378        N  0.69010445  0.58326606  0.27603118    -0.35000
C379        C  0.69876176  0.56776282  0.29584247     0.01200
C380        C  0.71918071  0.55227635  0.28629309     0.07200
C381        C  0.72204006  0.55933077  0.25993030    -0.05900
H382        H  0.69090231  0.56795027  0.31580646     0.07900
H383        H  0.73591235  0.55115388  0.24576506     0.09100
Cu384      Cu  0.66064962  0.61158418  0.27833418     0.44200
Cu385      Cu  0.69643367  0.59637030  0.21826165     0.42000
Cu386      Cu  0.64423342  0.64677706  0.21882464     0.43900
N387        N  0.63382645  0.64246958  0.27726074    -0.34500
N388        N  0.62815612  0.65597844  0.25554519    -0.28800
C389        C  0.61050553  0.67504075  0.26159164    -0.04900
C390        C  0.60474389  0.67319674  0.28836245     0.07300
C391        C  0.61978430  0.65230246  0.29763426     0.01100
H392        H  0.60198205  0.68870401  0.24743337     0.08800
H393        H  0.62040608  0.64470352  0.31768831     0.07900
N394        N  0.66370129  0.63391674  0.18495205    -0.36000
N395        N  0.68279261  0.61597493  0.18475154    -0.28200
C396        C  0.69105080  0.61242480  0.15964943    -0.03400
C397        C  0.67663539  0.62905427  0.14321915     0.05200
C398        C  0.65928759  0.64216876  0.15999737     0.03300
H399        H  0.70648271  0.59873916  0.15381282     0.08400
H400        H  0.64409550  0.65625385  0.15453776     0.07300
N401        N  0.38640297  0.58433571  0.83323919    -0.27100
N402        N  0.40179097  0.58770996  0.81229016    -0.35000
C403        C  0.39345601  0.57184110  0.79263932     0.01200
C404        C  0.37169642  0.55796558  0.80162845     0.07200
C405        C  0.36766084  0.56635713  0.82739033    -0.05900
H406        H  0.40264815  0.57046270  0.77330192     0.07900
H407        H  0.35272339  0.55939580  0.84111034     0.09100
Cu408      Cu  0.43301243  0.61396960  0.81076256     0.44200
Cu409      Cu  0.39280092  0.60278142  0.86929608     0.42000
Cu410      Cu  0.44403845  0.65309943  0.86915409     0.43900
N411        N  0.45966340  0.64484513  0.81226049    -0.34500
N412        N  0.46313405  0.65990110  0.83340413    -0.28800
C413        C  0.48096460  0.67883675  0.82765972    -0.04900
C414        C  0.48909335  0.67534456  0.80169714     0.07300
C415        C  0.47527214  0.65360049  0.79255531     0.01100
H416        H  0.48779608  0.69372858  0.84147618     0.08800
H417        H  0.47634999  0.64484843  0.77299982     0.07900
N418        N  0.42466286  0.64020280  0.90302099    -0.36000
N419        N  0.40624737  0.62159878  0.90317049    -0.28200
C420        C  0.39910750  0.61664472  0.92838442    -0.03400
C421        C  0.41348497  0.63317673  0.94485553     0.05200
C422        C  0.42956789  0.64773936  0.92810228     0.03300
H423        H  0.38469851  0.60193233  0.93429431     0.08400
H424        H  0.44443762  0.66209263  0.93375145     0.07300
N425        N  0.38739415  0.58582881  0.25539622    -0.27100
N426        N  0.40352754  0.58810326  0.27592795    -0.35000
C427        C  0.39509703  0.57219374  0.29551557     0.01200
C428        C  0.37247837  0.55937069  0.28694329     0.07200
C429        C  0.36810117  0.56845446  0.26142620    -0.05900
H430        H  0.40464972  0.57026019  0.31463972     0.07900
H431        H  0.35230746  0.56264372  0.24811999     0.09100
Cu432      Cu  0.43533629  0.61376086  0.27697586     0.44200
Cu433      Cu  0.39336099  0.60592649  0.22007120     0.42000
Cu434      Cu  0.44358707  0.65772127  0.22103134     0.43900
N435        N  0.46181258  0.64486645  0.27637286    -0.34500
N436        N  0.46414842  0.66170962  0.25644816    -0.28800
C437        C  0.48224733  0.68017006  0.26290450    -0.04900
C438        C  0.49173190  0.67448152  0.28801913     0.07300
C439        C  0.47839830  0.65200114  0.29594632     0.01100
H440        H  0.48828382  0.69628215  0.25013739     0.08800
H441        H  0.48041229  0.64167912  0.31464077     0.07900
N442        N  0.42446876  0.64483475  0.18695952    -0.36000
N443        N  0.40641873  0.62588164  0.18662323    -0.28200
C444        C  0.39993873  0.62051878  0.16132932    -0.03400
C445        C  0.41479851  0.63664406  0.14484997     0.05200
C446        C  0.42989462  0.65204763  0.16187354     0.03300
H447        H  0.38625971  0.60515204  0.15534788     0.08400
H448        H  0.44415479  0.66709633  0.15654536     0.07300
O449        O  0.57681523  0.67946749  0.32555005    -0.72800
O450        O  0.51978954  0.71773255  0.36539325    -0.73800
O451        O  0.52067470  0.67918623  0.32478445    -0.62400
O452        O  0.57612404  0.71845566  0.36605813    -0.70800
O453        O  0.57652196  0.74992566  0.33531639    -0.70400
O454        O  0.52059999  0.71097807  0.29435949    -0.61600
O455        O  0.52046051  0.74976410  0.33523862    -0.74100
O456        O  0.57655639  0.71052607  0.29438367    -0.72900
Cu457      Cu  0.54839843  0.69761418  0.34651297     1.04600
Cu458      Cu  0.54858940  0.73143280  0.31376055     1.04300
C459        C  0.58524864  0.68857524  0.30349510     0.93400
C460        C  0.51117130  0.73980608  0.35660501     0.92500
C461        C  0.51192522  0.68891447  0.30308855     0.84700
C462        C  0.58483578  0.74053155  0.35731860     0.91000
N463        N  0.38750198  0.41906484  0.83689604    -0.27100
N464        N  0.40191420  0.41431825  0.81553403    -0.35000
C465        C  0.39340891  0.42965753  0.79554642     0.01200
C466        C  0.37246535  0.44465628  0.80465956     0.07200
C467        C  0.36914101  0.43748484  0.83094677    -0.05900
H468        H  0.40172489  0.42966495  0.77576725     0.07900
H469        H  0.35476635  0.44532670  0.84479706     0.09100
Cu470      Cu  0.43162626  0.38646971  0.81374840     0.44200
Cu471      Cu  0.39465077  0.40072448  0.87306115     0.42000
Cu472      Cu  0.44282863  0.34645741  0.87144216     0.43900
N473        N  0.45756677  0.35504019  0.81435333    -0.34500
N474        N  0.46120092  0.33958680  0.83518222    -0.28800
C475        C  0.47916061  0.32088219  0.82892991    -0.04900
C476        C  0.48719913  0.32502625  0.80299932     0.07300
C477        C  0.47312954  0.34681508  0.79439462     0.01100
H478        H  0.48635526  0.30588852  0.84245704     0.08800
H479        H  0.47421822  0.35614790  0.77511145     0.07900
N480        N  0.42552736  0.36115319  0.90586395    -0.36000
N481        N  0.40836832  0.38093791  0.90648849    -0.28200
C482        C  0.40256899  0.38654891  0.93191357    -0.03400
C483        C  0.41689775  0.36967172  0.94819279     0.05200
C484        C  0.43098928  0.35364175  0.93086800     0.03300
H485        H  0.38940223  0.40228323  0.93809898     0.08400
H486        H  0.44429128  0.33763793  0.93591163     0.07300
N487        N  0.38468626  0.41642676  0.25924884    -0.27100
N488        N  0.39916577  0.41250522  0.28078238    -0.35000
C489        C  0.39130319  0.42955717  0.29972162     0.01200
C490        C  0.37078770  0.44476723  0.28969144     0.07200
C491        C  0.36706187  0.43587327  0.26401372    -0.05900
H492        H  0.39978895  0.43067572  0.31940321     0.07900
H493        H  0.35289685  0.44326973  0.24969181     0.09100
Cu494      Cu  0.42865677  0.38376104  0.28364295     0.44200
Cu495      Cu  0.39058993  0.39620964  0.22388267     0.42000
Cu496      Cu  0.43899582  0.34327676  0.22521569     0.43900
N497        N  0.45554314  0.35248478  0.28196573    -0.34500
N498        N  0.45866774  0.33720746  0.26089244    -0.28800
C499        C  0.47722145  0.31878399  0.26619168    -0.04900
C500        C  0.48636863  0.32277350  0.29174522     0.07300
C501        C  0.47221670  0.34430026  0.30115338     0.01100
H502        H  0.48397029  0.30397227  0.25224762     0.08800
H503        H  0.47393089  0.35337824  0.32051234     0.07900
N504        N  0.42049218  0.35636607  0.19082984    -0.36000
N505        N  0.40306481  0.37590501  0.19031816    -0.28200
C506        C  0.39683993  0.38130650  0.16494399    -0.03400
C507        C  0.41084084  0.36422476  0.14864077     0.05200
C508        C  0.42569233  0.34873425  0.16579710     0.03300
H509        H  0.38364425  0.39703361  0.15877822     0.08400
H510        H  0.44032142  0.33400790  0.16047746     0.07300
N511        N  0.83435880  0.41289706  0.70973298    -0.27100
N512        N  0.81346487  0.40936899  0.69428858    -0.35000
C513        C  0.79418189  0.42614689  0.70172168     0.01200
C514        C  0.80333428  0.44081677  0.72294981     0.07200
C515        C  0.82884608  0.43190722  0.72758708    -0.05900
H516        H  0.77490574  0.42749490  0.69238583     0.07900
H517        H  0.84256148  0.43903669  0.74246387     0.09100
Cu518      Cu  0.81179954  0.38175427  0.66403667     0.44200
Cu519      Cu  0.86983976  0.39290076  0.70448535     0.42000
Cu520      Cu  0.87124453  0.34435640  0.65100409     0.43900
N521        N  0.81373911  0.35151850  0.63642777    -0.34500
N522        N  0.83524211  0.33719843  0.63203935    -0.28800
C523        C  0.82978007  0.31905580  0.61323376    -0.04900
C524        C  0.80368179  0.32237734  0.60532029     0.07300
C525        C  0.79415195  0.34311422  0.62042377     0.01100
H526        H  0.84392594  0.30495557  0.60545397     0.08800
H527        H  0.77443916  0.35155155  0.61979669     0.07900
N528        N  0.90469220  0.35702226  0.67169032    -0.36000
N529        N  0.90400176  0.37416185  0.69150020    -0.28200
C530        C  0.92890344  0.37908016  0.69966953    -0.03400
C531        C  0.94620891  0.36438109  0.68427587     0.05200
C532        C  0.93013297  0.35075732  0.66664328     0.03300
H533        H  0.93405435  0.39343151  0.71472752     0.08400
H534        H  0.93650748  0.33771762  0.65086689     0.07300
N535        N  0.25973951  0.41536945  0.70762750    -0.27100
N536        N  0.28011331  0.41283728  0.69134046    -0.35000
C537        C  0.29979863  0.42881947  0.69937242     0.01200
C538        C  0.29139645  0.44201198  0.72181356     0.07200
C539        C  0.26596141  0.43302225  0.72658238    -0.05900
H540        H  0.31865702  0.43092907  0.68937088     0.07900
H541        H  0.25266361  0.43942188  0.74214695     0.09100
Cu542      Cu  0.28036062  0.38812852  0.65884168     0.44200
Cu543      Cu  0.22373232  0.39651329  0.70184119     0.42000
Cu544      Cu  0.22022832  0.35240028  0.64498354     0.43900
N545        N  0.27754894  0.35909776  0.63030616    -0.34500
N546        N  0.25579741  0.34526923  0.62569330    -0.28800
C547        C  0.26111198  0.32674579  0.60727978    -0.04900
C548        C  0.28742241  0.32926989  0.59998686     0.07300
C549        C  0.29719996  0.35001307  0.61483934     0.01100
H550        H  0.24688123  0.31261303  0.59972810     0.08800
H551        H  0.31725196  0.35761568  0.61483472     0.07900
N552        N  0.18759084  0.36402897  0.66708066    -0.36000
N553        N  0.18888580  0.37971505  0.68801372    -0.28200
C554        C  0.16420079  0.38424832  0.69700677    -0.03400
C555        C  0.14641300  0.37103518  0.68074783     0.05200
C556        C  0.16205867  0.35821820  0.66217956     0.03300
H557        H  0.15967163  0.39645744  0.71401779     0.08400
H558        H  0.15533209  0.34620759  0.64574121     0.07300
O559        O  0.29624991  0.47171759  0.75789547    -0.72800
O560        O  0.33514747  0.52896038  0.79662800    -0.73800
O561        O  0.29591701  0.52765121  0.75615620    -0.62400
O562        O  0.33557067  0.47321531  0.79840211    -0.70800
O563        O  0.36674529  0.47240546  0.76729395    -0.70400
O564        O  0.32748625  0.52721235  0.72544959    -0.61600
O565        O  0.36648448  0.52838591  0.76566521    -0.74100
O566        O  0.32773364  0.47116258  0.72709151    -0.72900
Cu567      Cu  0.31458781  0.50040829  0.77833807     1.04600
Cu568      Cu  0.34821850  0.49975487  0.74530254     1.04300
C569        C  0.30583513  0.46251358  0.73634939     0.93400
C570        C  0.35702325  0.53755433  0.78727313     0.92500
C571        C  0.30545540  0.53603614  0.73424216     0.84700
C572        C  0.35751157  0.46433181  0.78944495     0.91000
N573        N  0.83616206  0.58122031  0.70653277    -0.27100
N574        N  0.81530592  0.58496207  0.69110766    -0.35000
C575        C  0.79542512  0.56931628  0.69933019     0.01200
C576        C  0.80418624  0.55518453  0.72107996     0.07200
C577        C  0.83006928  0.56319389  0.72517320    -0.05900
H578        H  0.77602693  0.56839774  0.69019841     0.07900
H579        H  0.84361629  0.55612343  0.74023842     0.09100
Cu580      Cu  0.81458344  0.61173333  0.66021606     0.44200
Cu581      Cu  0.87209992  0.59996189  0.70040156     0.42000
Cu582      Cu  0.87320020  0.65156320  0.64973617     0.43900
N583        N  0.81647826  0.64243702  0.63330087    -0.34500
N584        N  0.83744846  0.65776208  0.62992055    -0.28800
C585        C  0.83153536  0.67641879  0.61175258    -0.04900
C586        C  0.80567632  0.67243513  0.60335411     0.07300
C587        C  0.79681297  0.65071719  0.61736557     0.01100
H588        H  0.84510306  0.69155791  0.60499855     0.08800
H589        H  0.77737637  0.64172469  0.61630096     0.07900
N590        N  0.90675604  0.63759488  0.66942572    -0.36000
N591        N  0.90624719  0.61869852  0.68756364    -0.28200
C592        C  0.93122603  0.61275587  0.69473757    -0.03400
C593        C  0.94842238  0.62851289  0.68031343     0.05200
C594        C  0.93215710  0.64423886  0.66471256     0.03300
H595        H  0.93638399  0.59786597  0.70925585     0.08400
H596        H  0.93838428  0.65873447  0.65021112     0.07300
N597        N  0.25981545  0.58384659  0.70577159    -0.27100
N598        N  0.28012863  0.58644280  0.68939709    -0.35000
C599        C  0.29947919  0.56968850  0.69686831     0.01200
C600        C  0.29090012  0.55606654  0.71904640     0.07200
C601        C  0.26571905  0.56551166  0.72415088    -0.05900
H602        H  0.31848538  0.56784397  0.68709565     0.07900
H603        H  0.25257409  0.55943715  0.73997018     0.09100
Cu604      Cu  0.28113973  0.61355551  0.65850478     0.44200
Cu605      Cu  0.22458609  0.60451130  0.70212314     0.42000
Cu606      Cu  0.22258897  0.65368995  0.65009082     0.43900
N607        N  0.27866421  0.64490850  0.63202924    -0.34500
N608        N  0.25754410  0.66022018  0.62955447    -0.28800
C609        C  0.26261388  0.67920906  0.61152382    -0.04900
C610        C  0.28809270  0.67549823  0.60211241     0.07300
C611        C  0.29765809  0.65358562  0.61549701     0.01100
H612        H  0.24865794  0.69431048  0.60546481     0.08800
H613        H  0.31707066  0.64468294  0.61349745     0.07900
N614        N  0.18954839  0.64136084  0.67112499    -0.36000
N615        N  0.19033271  0.62395582  0.69068023    -0.28200
C616        C  0.16547097  0.61915024  0.69903603    -0.03400
C617        C  0.14823019  0.63413368  0.68385462     0.05200
C618        C  0.16416370  0.64784866  0.66629048     0.03300
H619        H  0.16024565  0.60462675  0.71390357     0.08400
H620        H  0.15771816  0.66093589  0.65057432     0.07300
O621        O  0.33305388  0.75403697  0.51770754    -0.72800
O622        O  0.29266536  0.71289896  0.57350247    -0.73800
O623        O  0.33259457  0.75290499  0.57412472    -0.62400
O624        O  0.29259461  0.71437113  0.51718334    -0.70800
O625        O  0.32383592  0.68338488  0.51650629    -0.70400
O626        O  0.36349449  0.72157768  0.57389288    -0.61600
O627        O  0.32403280  0.68205863  0.57275334    -0.74100
O628        O  0.36365522  0.72243821  0.51744597    -0.72900
Cu629      Cu  0.31161130  0.73468975  0.54565295     1.04600
Cu630      Cu  0.34481541  0.70132349  0.54513129     1.04300
C631        C  0.35475042  0.74441851  0.50873917     0.93400
C632        C  0.30217805  0.69094555  0.58185115     0.92500
C633        C  0.35423442  0.74326142  0.58305964     0.84700
C634        C  0.30195842  0.69281114  0.50788204     0.91000
N635        N  0.83204588  0.58180740  0.38387683    -0.27100
N636        N  0.81075979  0.58579648  0.39868055    -0.35000
C637        C  0.79118203  0.56983586  0.39021929     0.01200
C638        C  0.80049336  0.55522920  0.36899415     0.07200
C639        C  0.82645479  0.56333753  0.36544297    -0.05900
H640        H  0.77162385  0.56887019  0.39897261     0.07900
H641        H  0.84043989  0.55593038  0.35096579     0.09100
Cu642      Cu  0.80879834  0.61284600  0.42968344     0.44200
Cu643      Cu  0.86809688  0.60065670  0.39041224     0.42000
Cu644      Cu  0.86740057  0.65170070  0.44116304     0.43900
N645        N  0.81075146  0.64292477  0.45775369    -0.34500
N646        N  0.83206729  0.65771784  0.46132261    -0.28800
C647        C  0.82699933  0.67586703  0.48017567    -0.04900
C648        C  0.80131258  0.67221684  0.48903478     0.07300
C649        C  0.79159823  0.65112391  0.47444600     0.01100
H650        H  0.84111892  0.69038219  0.48718667     0.08800
H651        H  0.77201481  0.64248957  0.47572826     0.07900
N652        N  0.90126931  0.63984496  0.42107709    -0.36000
N653        N  0.90165254  0.62113104  0.40277367    -0.28200
C654        C  0.92688221  0.61703640  0.39512635    -0.03400
C655        C  0.94323852  0.63414596  0.40913667     0.05200
C656        C  0.92619133  0.64817940  0.42548669     0.03300
H657        H  0.93288330  0.60180757  0.38131647     0.08400
H658        H  0.93153927  0.66299199  0.44001988     0.07300
N659        N  0.25610756  0.58533568  0.38559854    -0.27100
N660        N  0.27802677  0.59152584  0.39855548    -0.35000
C661        C  0.29827330  0.57709782  0.38901591     0.01200
C662        C  0.28873203  0.56123389  0.36885345     0.07200
C663        C  0.26192016  0.56695839  0.36713891    -0.05900
H664        H  0.31843051  0.57803135  0.39631354     0.07900
H665        H  0.24757513  0.55787966  0.35403152     0.09100
Cu666      Cu  0.27946756  0.61949940  0.42837067     0.44200
Cu667      Cu  0.21937672  0.60147574  0.39516383     0.42000
Cu668      Cu  0.21943522  0.65604520  0.44286115     0.43900
N669        N  0.27735484  0.64970642  0.45586189    -0.34500
N670        N  0.25578928  0.66381817  0.46061501    -0.28800
C671        C  0.26129549  0.68180472  0.47952935    -0.04900
C672        C  0.28747964  0.67855945  0.48709775     0.07300
C673        C  0.29702996  0.65808264  0.47172278     0.01100
H674        H  0.24708630  0.69560119  0.48773223     0.08800
H675        H  0.31678238  0.64972597  0.47213247     0.07900
N676        N  0.18535015  0.64016986  0.42603491    -0.36000
N677        N  0.18534548  0.61998591  0.40932580    -0.28200
C678        C  0.16012631  0.61368723  0.40338497    -0.03400
C679        C  0.14339877  0.63066765  0.41699062     0.05200
C680        C  0.16012107  0.64734408  0.43096178     0.03300
H681        H  0.15444419  0.59809880  0.38983139     0.08400
H682        H  0.15436156  0.66322777  0.44414467     0.07300
N683        N  0.83297521  0.41643774  0.38856529    -0.27100
N684        N  0.81209584  0.41312566  0.40401731    -0.35000
C685        C  0.79220063  0.42846540  0.39513273     0.01200
C686        C  0.80105539  0.44187924  0.37293209     0.07200
C687        C  0.82695734  0.43380656  0.36930810    -0.05900
H688        H  0.77271478  0.42958124  0.40403322     0.07900
H689        H  0.84054482  0.44029271  0.35403800     0.09100
Cu690      Cu  0.81162797  0.38678112  0.43541208     0.44200
Cu691      Cu  0.86871315  0.39765177  0.39488076     0.42000
Cu692      Cu  0.87130429  0.34727795  0.44585448     0.43900
N693        N  0.81436152  0.35557497  0.46182678    -0.34500
N694        N  0.83561387  0.34055347  0.46502039    -0.28800
C695        C  0.83010136  0.32140967  0.48273333    -0.04900
C696        C  0.80422612  0.32475176  0.49110429     0.07300
C697        C  0.79488166  0.34657468  0.47754220     0.01100
H698        H  0.84400816  0.30646629  0.48928319     0.08800
H699        H  0.77527880  0.35519118  0.47882037     0.07900
N700        N  0.90418795  0.36032874  0.42501197    -0.36000
N701        N  0.90300538  0.37851106  0.40621347    -0.28200
C702        C  0.92758102  0.38354107  0.39735746    -0.03400
C703        C  0.94515972  0.36773841  0.41119829     0.05200
C704        C  0.92966736  0.35339837  0.42872428     0.03300
H705        H  0.93234959  0.39851808  0.38279727     0.08400
H706        H  0.93645651  0.33937584  0.44345535     0.07300
N707        N  0.25632763  0.42306854  0.38630948    -0.27100
N708        N  0.27777945  0.41807793  0.40053903    -0.35000
C709        C  0.29775354  0.43331535  0.39171654     0.01200
C710        C  0.28844975  0.44835668  0.37078090     0.07200
C711        C  0.26212755  0.44137641  0.36783977    -0.05900
H712        H  0.31764537  0.43322122  0.39976325     0.07900
H713        H  0.24812391  0.44926517  0.35362197     0.09100
Cu714      Cu  0.27926440  0.38989652  0.43046352     0.44200
Cu715      Cu  0.22013284  0.40527488  0.39331374     0.42000
Cu716      Cu  0.21971781  0.35243592  0.44279341     0.43900
N717        N  0.27733158  0.35863594  0.45712303    -0.34500
N718        N  0.25577678  0.34431806  0.46119497    -0.28800
C719        C  0.26128571  0.32538593  0.47921199    -0.04900
C720        C  0.28751468  0.32809885  0.48691835     0.07300
C721        C  0.29701883  0.34938975  0.47255700     0.01100
H722        H  0.24709647  0.31113239  0.48659645     0.08800
H723        H  0.31680182  0.35762738  0.47330918     0.07900
N724        N  0.18614462  0.36630247  0.42317380    -0.36000
N725        N  0.18635334  0.38559153  0.40545127    -0.28200
C726        C  0.16138996  0.39043046  0.39745470    -0.03400
C727        C  0.14460613  0.37318589  0.41052583     0.05200
C728        C  0.16098696  0.35830103  0.42681031     0.03300
H729        H  0.15587900  0.40549259  0.38323061     0.08400
H730        H  0.15503330  0.34331399  0.44091037     0.07300
O731        O  0.32528539  0.47669301  0.36452739    -0.72800
O732        O  0.36589830  0.53125832  0.32391611    -0.73800
O733        O  0.32573374  0.53279327  0.36316728    -0.62400
O734        O  0.36526344  0.47509090  0.32527662    -0.70800
O735        O  0.33472952  0.47502813  0.29353508    -0.70400
O736        O  0.29443932  0.53211279  0.33217070    -0.61600
O737        O  0.33505210  0.53122342  0.29246139    -0.74100
O738        O  0.29425411  0.47625103  0.33324826    -0.72900
Cu739      Cu  0.34661147  0.50400585  0.34528166     1.04600
Cu740      Cu  0.31354163  0.50366308  0.31169957     1.04300
C741        C  0.30334788  0.46797997  0.35541453     0.93400
C742        C  0.35701374  0.53975230  0.30178267     0.92500
C743        C  0.30369160  0.54121125  0.35393064     0.84700
C744        C  0.35624114  0.46596513  0.30344028     0.91000
C745        C  0.01664441  0.36996418  0.43322048    -0.01900
C746        C  0.03016724  0.37141518  0.40884789     0.06700
C747        C  0.01578767  0.37139151  0.38508542    -0.07800
C748        C  0.98806705  0.36998716  0.38533681     0.04200
C749        C  0.97442028  0.36842972  0.40977778    -0.15100
C750        C  0.98897488  0.36825810  0.43352322    -0.08400
C751        C  0.05941683  0.37218413  0.40785820     0.05100
C752        C  0.07342977  0.34832029  0.40930669    -0.09500
C753        C  0.10116210  0.34812676  0.40957718     0.00100
C754        C  0.11529360  0.37226046  0.40877721     0.00000
C755        C  0.10110916  0.39612608  0.40654269    -0.13100
C756        C  0.07334560  0.39623425  0.40606664     0.00400
C757        C  0.11451315  0.32286234  0.40948446     0.39800
C758        C  0.05949978  0.42117684  0.40414710     0.36400
C759        C  0.03079535  0.37070876  0.45811047     0.36100
C760        C  0.97425232  0.36916375  0.36025966     0.36900
N761        N  0.12515924  0.30257574  0.40924663    -0.43900
N762        N  0.04833822  0.44112646  0.40255872    -0.44400
N763        N  0.96319738  0.36849672  0.34014948    -0.41700
N764        N  0.04218511  0.37145970  0.47802595    -0.43200
H765        H  0.97868762  0.36739234  0.45238579     0.13000
H766        H  0.02628774  0.37227989  0.36633631     0.09500
H767        H  0.06261364  0.32979409  0.41020459     0.10500
H768        H  0.11169359  0.41477569  0.40575146     0.16400
C769        C  0.01365870  0.64141388  0.43443615    -0.01900
C770        C  0.02878136  0.63559376  0.41171837     0.06700
C771        C  0.01583982  0.63016558  0.38773142    -0.07800
C772        C  0.98806893  0.63024047  0.38616795     0.04200
C773        C  0.97274241  0.63522762  0.40916255    -0.15100
C774        C  0.98593487  0.64112080  0.43304491    -0.08400
C775        C  0.05814868  0.63467782  0.41278158     0.05100
C776        C  0.07076602  0.61001763  0.41417901    -0.09500
C777        C  0.09842645  0.60823248  0.41609628     0.00100
C778        C  0.11399226  0.63150633  0.41609600     0.00000
C779        C  0.10121211  0.65620520  0.41504446    -0.13100
C780        C  0.07352377  0.65793343  0.41338652     0.00400
C781        C  0.11009798  0.58239111  0.41969007     0.39800
C782        C  0.06125047  0.68371419  0.41216480     0.36400
C783        C  0.02625055  0.64732841  0.45946943     0.36100
C784        C  0.97601660  0.62637948  0.36048657     0.36900
N785        N  0.11935787  0.56166697  0.42281097    -0.43900
N786        N  0.05131933  0.70433841  0.41124218    -0.44400
N787        N  0.96644727  0.62342841  0.33982787    -0.41700
N788        N  0.03646656  0.65214941  0.47944784    -0.43200
H789        H  0.97461494  0.64500422  0.45089166     0.13000
H790        H  0.02751339  0.62611882  0.37012771     0.09500
H791        H  0.05888782  0.59213117  0.41433468     0.10500
H792        H  0.11289666  0.67420835  0.41513526     0.16400
C793        C  0.01907690  0.65363253  0.67882778    -0.01900
C794        C  0.03383926  0.63008916  0.68100312     0.06700
C795        C  0.02059619  0.60583045  0.68285318    -0.07800
C796        C  0.99283366  0.60473681  0.68272039     0.04200
C797        C  0.97786443  0.62838095  0.68071719    -0.15100
C798        C  0.99133280  0.65262227  0.67857715    -0.08400
C799        C  0.06316806  0.63045790  0.68153452     0.05100
C800        C  0.07614887  0.63383007  0.70588599    -0.09500
C801        C  0.10387593  0.63489512  0.70716393     0.00100
C802        C  0.11895894  0.63288346  0.68366904     0.00000
C803        C  0.10587133  0.62950908  0.65931503    -0.13100
C804        C  0.07819079  0.62800738  0.65812329     0.00400
C805        C  0.11626669  0.63914448  0.73262334     0.39800
C806        C  0.06563234  0.62383168  0.63273238     0.36400
C807        C  0.03205630  0.67900690  0.67686174     0.36100
C808        C  0.98045875  0.57900373  0.68348552     0.36900
N809        N  0.12614282  0.64259817  0.75305440    -0.43900
N810        N  0.05565912  0.62035461  0.61235351    -0.44400
N811        N  0.97072739  0.55827965  0.68408379    -0.41700
N812        N  0.04252595  0.69931344  0.67530404    -0.43200
H813        H  0.98015252  0.67088979  0.67703134     0.13000
H814        H  0.03202832  0.58769783  0.68427307     0.09500
H815        H  0.06454718  0.63581886  0.72388525     0.10500
H816        H  0.11733049  0.62765337  0.64121127     0.16400
C817        C  0.01673691  0.36780960  0.65890843    -0.01900
C818        C  0.03154725  0.36838877  0.68261455     0.06700
C819        C  0.01826072  0.36792011  0.70701215    -0.07800
C820        C  0.99052874  0.36647302  0.70808860     0.04200
C821        C  0.97561379  0.36553053  0.68433601    -0.15100
C822        C  0.98904171  0.36615091  0.65992955    -0.08400
C823        C  0.06095300  0.36885736  0.68239314     0.05100
C824        C  0.07421937  0.39201569  0.68995129    -0.09500
C825        C  0.10198689  0.39331911  0.68958154     0.00100
C826        C  0.11697975  0.37085285  0.68201322     0.00000
C827        C  0.10351469  0.34766390  0.67458326    -0.13100
C828        C  0.07579387  0.34652579  0.67468888     0.00400
C829        C  0.11430386  0.41840659  0.69551381     0.39800
C830        C  0.06295713  0.32216839  0.66702240     0.36400
C831        C  0.02954119  0.36949516  0.63335585     0.36100
C832        C  0.97808147  0.36476111  0.73380439     0.36900
N833        N  0.12408579  0.43859470  0.70015364    -0.43900
N834        N  0.05259820  0.30271174  0.66079548    -0.44400
N835        N  0.96822547  0.36333710  0.75447832    -0.41700
N836        N  0.03983602  0.37093440  0.61290045    -0.43200
H837        H  0.97784543  0.36586054  0.64156471     0.13000
H838        H  0.02965305  0.36823165  0.72526558     0.09500
H839        H  0.06278684  0.40930310  0.69560219     0.10500
H840        H  0.11467643  0.33025656  0.66879964     0.16400
C841        C  0.39220245  0.37558106  0.01896378    -0.01900
C842        C  0.41479229  0.36852258  0.03382581     0.06700
C843        C  0.43832494  0.36209973  0.02056233    -0.07800
C844        C  0.43968536  0.36268397  0.99279609     0.04200
C845        C  0.41687944  0.36921340  0.97772280    -0.15100
C846        C  0.39338038  0.37583073  0.99120364    -0.08400
C847        C  0.41425953  0.36770337  0.06324910     0.05100
C848        C  0.41448033  0.34309695  0.07607689    -0.09500
C849        C  0.41336917  0.34142738  0.10381428     0.00100
C850        C  0.41201995  0.36478053  0.11921229     0.00000
C851        C  0.41197740  0.38940385  0.10623993    -0.13100
C852        C  0.41332141  0.39102040  0.07853762     0.00400
C853        C  0.41247198  0.31550263  0.11578730     0.39800
C854        C  0.41435674  0.41678412  0.06621147     0.36400
C855        C  0.36751661  0.38228533  0.03181287     0.36100
C856        C  0.46512831  0.35794866  0.98059097     0.36900
N857        N  0.41172377  0.29467447  0.12529261    -0.43900
N858        N  0.41529271  0.43740676  0.05628722    -0.44400
N859        N  0.48562645  0.35427262  0.97095545    -0.41700
N860        N  0.34778819  0.38773502  0.04217614    -0.43200
H861        H  0.37571708  0.38090471  0.98004071     0.13000
H862        H  0.45583559  0.35707109  0.03201149     0.09500
H863        H  0.41514497  0.32513231  0.06432489     0.10500
H864        H  0.41138174  0.40748899  0.11779271     0.16400
C865        C  0.41358014  0.60957261  0.01601051    -0.01900
C866        C  0.41351231  0.63363979  0.03009910     0.06700
C867        C  0.41333504  0.65760840  0.01616640    -0.07800
C868        C  0.41316224  0.65790629  0.98840880     0.04200
C869        C  0.41310579  0.63382093  0.97418564    -0.15100
C870        C  0.41309868  0.60981605  0.98823579    -0.08400
C871        C  0.41362185  0.63429144  0.05943183     0.05100
C872        C  0.43747857  0.63934844  0.07268422    -0.09500
C873        C  0.43847578  0.64009403  0.10043288     0.00100
C874        C  0.41503531  0.63621139  0.11539532     0.00000
C875        C  0.39118103  0.63100438  0.10191628    -0.13100
C876        C  0.39033161  0.62999556  0.07418126     0.00400
C877        C  0.46407966  0.64335218  0.11280676     0.39800
C878        C  0.36535670  0.62472581  0.06120858     0.36400
C879        C  0.41484485  0.58450643  0.02969175     0.36100
C880        C  0.41199984  0.68315525  0.97507061     0.36900
N881        N  0.48470338  0.64584451  0.12256844    -0.43900
N882        N  0.34538109  0.62046680  0.05074749    -0.44400
N883        N  0.41103319  0.70338331  0.96435903    -0.41700
N884        N  0.41601949  0.56446478  0.04072985    -0.43200
H885        H  0.41333481  0.59122873  0.97749287     0.13000
H886        H  0.41315064  0.67611965  0.02705198     0.09500
H887        H  0.45546511  0.64228601  0.06126649     0.10500
H888        H  0.37306226  0.62792333  0.11306026     0.16400
C889        C  0.70567609  0.63509961  0.01416036    -0.01900
C890        C  0.68186965  0.63428269  0.02873097     0.06700
C891        C  0.65757565  0.63379326  0.01530892    -0.07800
C892        C  0.65666677  0.63391857  0.98758496     0.04200
C893        C  0.68049465  0.63493102  0.97284747    -0.15100
C894        C  0.70483496  0.63534612  0.98639269    -0.08400
C895        C  0.68172566  0.63300728  0.05802588     0.05100
C896        C  0.67606699  0.65595325  0.07249790    -0.09500
C897        C  0.67462646  0.65530003  0.10022806     0.00100
C898        C  0.67864085  0.63115018  0.11390507     0.00000
C899        C  0.68466751  0.60826843  0.09921413    -0.13100
C900        C  0.68613683  0.60902302  0.07150408     0.00400
C901        C  0.66998453  0.67991071  0.11398733     0.39800
C902        C  0.69153233  0.58486997  0.05718600     0.36400
C903        C  0.73108973  0.63577000  0.02732676     0.36100
C904        C  0.63112615  0.63129709  0.97490525     0.36900
N905        N  0.66627507  0.69971444  0.12489947    -0.43900
N906        N  0.69581085  0.56557723  0.04559074    -0.44400
N907        N  0.61063472  0.62901770  0.96482047    -0.41700
N908        N  0.75144969  0.63630572  0.03790737    -0.43200
H909        H  0.72321345  0.63605709  0.97525718     0.13000
H910        H  0.63928782  0.63271409  0.02657764     0.09500
H911        H  0.67282432  0.67443909  0.06204971     0.10500
H912        H  0.68766938  0.58957807  0.10933165     0.16400
C913        C  0.65016677  0.36763087  0.01513647    -0.01900
C914        C  0.67333844  0.37066336  0.03038556     0.06700
C915        C  0.69799982  0.37230249  0.01772559    -0.07800
C916        C  0.69982200  0.37101991  0.99003613     0.04200
C917        C  0.67654832  0.36826142  0.97462157    -0.15100
C918        C  0.65191077  0.36642309  0.98748208    -0.08400
C919        C  0.67228770  0.37103581  0.05966867     0.05100
C920        C  0.67089444  0.34692099  0.07324285    -0.09500
C921        C  0.66974261  0.34624627  0.10095604     0.00100
C922        C  0.67006114  0.37015040  0.11553735     0.00000
C923        C  0.67159096  0.39430233  0.10179346    -0.13100
C924        C  0.67250857  0.39490528  0.07404435     0.00400
C925        C  0.66937340  0.32072310  0.11379246     0.39800
C926        C  0.67312452  0.42016656  0.06069140     0.36400
C927        C  0.62441529  0.36592945  0.02750652     0.36100
C928        C  0.72585522  0.37121167  0.97813456     0.36900
N929        N  0.66907048  0.30020476  0.12397516    -0.43900
N930        N  0.67348222  0.44041625  0.04998527    -0.44400
N931        N  0.74674511  0.37124171  0.96864287    -0.41700
N932        N  0.60380088  0.36458734  0.03747918    -0.43200
H933        H  0.63389993  0.36444050  0.97589918     0.13000
H934        H  0.71586935  0.37417269  0.02956085     0.09500
H935        H  0.67084490  0.32856184  0.06209417     0.10500
H936        H  0.67164676  0.41277314  0.11273618     0.16400
C937        C  0.38857750  0.97131848  0.66978472    -0.01900
C938        C  0.41198533  0.98651231  0.67052034     0.06700
C939        C  0.43657044  0.97366315  0.67192532    -0.07800
C940        C  0.43817876  0.94602283  0.67268274     0.04200
C941        C  0.41473260  0.93066357  0.67187093    -0.15100
C942        C  0.39012927  0.94364510  0.67010521    -0.08400
C943        C  0.41137825  0.01583534  0.67145952     0.05100
C944        C  0.41939676  0.02843667  0.69484577    -0.09500
C945        C  0.41965020  0.05605373  0.69681066     0.00100
C946        C  0.41194953  0.07174742  0.67481803     0.00000
C947        C  0.40375508  0.05892245  0.65140876    -0.13100
C948        C  0.40351962  0.03125757  0.64954559     0.00400
C949        C  0.42708668  0.06738178  0.72200500     0.39800
C950        C  0.39597580  0.01917119  0.62471304     0.36400
C951        C  0.36277499  0.98369957  0.67003150     0.36100
C952        C  0.46420514  0.93416327  0.67365734     0.36900
N953        N  0.43316096  0.07612669  0.74233310    -0.43900
N954        N  0.38995135  0.00953292  0.60478175    -0.44400
N955        N  0.48515514  0.92484733  0.67456492    -0.41700
N956        N  0.34210714  0.99364755  0.67040433    -0.43200
H957        H  0.37197789  0.93215666  0.66979839     0.13000
H958        H  0.45459694  0.98535274  0.67258432     0.09500
H959        H  0.42531251  0.01654626  0.71176729     0.10500
H960        H  0.39809373  0.07048878  0.63421358     0.16400
C961        C  0.69855568  0.97186733  0.67613047    -0.01900
C962        C  0.67411211  0.98532679  0.67763298     0.06700
C963        C  0.65056398  0.97070198  0.67920017    -0.07800
C964        C  0.65107735  0.94297524  0.67940682     0.04200
C965        C  0.67561378  0.92940630  0.67819646    -0.15100
C966        C  0.69912787  0.94415032  0.67630094    -0.08400
C967        C  0.67274478  0.01466104  0.67688544     0.05100
C968        C  0.67898610  0.02777267  0.65321733    -0.09500
C969        C  0.67844038  0.05543800  0.65169644     0.00100
C970        C  0.67193426  0.07058221  0.67441781     0.00000
C971        C  0.66509707  0.05728632  0.69794462    -0.13100
C972        C  0.66539064  0.02959318  0.69930651     0.00400
C973        C  0.68339908  0.06748658  0.62621998     0.39800
C974        C  0.65869663  0.01692750  0.72407473     0.36400
C975        C  0.72330989  0.98615492  0.67505690     0.36100
C976        C  0.62607615  0.92907144  0.67946402     0.36900
N977        N  0.68729379  0.07699168  0.60570416    -0.43900
N978        N  0.65329603  0.00676249  0.74391381    -0.44400
N979        N  0.60598979  0.91800759  0.67939517    -0.41700
N980        N  0.74310604  0.99769101  0.67426825    -0.43200
H981        H  0.71805272  0.93399179  0.67541752     0.13000
H982        H  0.63171088  0.98102026  0.67988847     0.09500
H983        H  0.68409312  0.01627012  0.63578419     0.10500
H984        H  0.65997631  0.06854218  0.71551690     0.16400
C985        C  0.66023531  0.97018494  0.40749354    -0.01900
C986        C  0.68402444  0.98410352  0.41197489     0.06700
C987        C  0.70731930  0.96992806  0.41722070    -0.07800
C988        C  0.70730125  0.94219186  0.41782349     0.04200
C989        C  0.68343060  0.92808166  0.41338396    -0.15100
C990        C  0.66013040  0.94247208  0.40809830    -0.08400
C991        C  0.68488850  0.01347744  0.41178909     0.05100
C992        C  0.68869481  0.02692641  0.43578690    -0.09500
C993        C  0.68855665  0.05463744  0.43674558     0.00100
C994        C  0.68464050  0.06944393  0.41321446     0.00000
C995        C  0.68118257  0.05584232  0.38914196    -0.13100
C996        C  0.68151768  0.02812736  0.38823561     0.00400
C997        C  0.69107707  0.06712609  0.46237084     0.39800
C998        C  0.67887177  0.01509974  0.36289022     0.36400
C999        C  0.63555858  0.98398347  0.40299666     0.36100
C1000       C  0.73231231  0.92894463  0.42201210     0.36900
N1001       N  0.69310239  0.07701109  0.48297872    -0.43900
N1002       N  0.67684447  0.00459281  0.34259890    -0.44400
N1003       N  0.75246055  0.91849686  0.42538625    -0.41700
N1004       N  0.61582140  0.99511608  0.39942042    -0.43200
H1005       H  0.64158481  0.93209700  0.40497573     0.13000
H1006       H  0.72566085  0.98062062  0.42058540     0.09500
H1007       H  0.69122222  0.01567713  0.45393967     0.10500
H1008       H  0.67847239  0.06690568  0.37091160     0.16400
C1009       C  0.42020679  0.02978044  0.38937913    -0.01900
C1010       C  0.41535263  0.01377501  0.41175647     0.06700
C1011       C  0.40997649  0.02587710  0.43621445    -0.07800
C1012       C  0.40908008  0.05345358  0.43864522     0.04200
C1013       C  0.41376537  0.06957523  0.41619777    -0.15100
C1014       C  0.41936986  0.05736634  0.39176218    -0.08400
C1015       C  0.41604131  0.98439860  0.41031588     0.05100
C1016       C  0.43969510  0.97162542  0.40319970    -0.09500
C1017       C  0.44153821  0.94393812  0.40312916     0.00100
C1018       C  0.41919306  0.92844004  0.41013866     0.00000
C1019       C  0.39547130  0.94141084  0.41688135    -0.13100
C1020       C  0.39377056  0.96901403  0.41715414     0.00400
C1021       C  0.46703813  0.93235991  0.39726598     0.39800
C1022       C  0.36888644  0.98108845  0.42452441     0.36400
C1023       C  0.42567245  0.01840835  0.36368229     0.36100
C1024       C  0.40457470  0.06439789  0.46469378     0.36900
N1025       N  0.48762255  0.92337677  0.39256117    -0.43900
N1026       N  0.34900522  0.99076929  0.43061746    -0.44400
N1027       N  0.40094480  0.07293395  0.48568130    -0.41700
N1028       N  0.43015541  0.00936248  0.34308034    -0.43200
H1029       H  0.42291111  0.06941310  0.37432716     0.13000
H1030       H  0.40676803  0.01365013  0.45360348     0.09500
H1031       H  0.45702587  0.98338859  0.39839601     0.10500
H1032       H  0.37804351  0.92996334  0.42200726     0.16400
loop_ 
_geom_bond_atom_site_label_1 
_geom_bond_atom_site_label_2 
_geom_bond_distance 
_geom_bond_site_symmetry_2 
_ccdc_geom_bond_type 
O1           Cu9   2.008       .  S
O1           C11   1.277       .  A
O2           Cu9   2.009       .  S
O2           C12   1.277       .  A
O3           Cu9   2.011       .  S
O3           C13   1.278       .  A
O4           Cu9   2.012       .  S
O4           C14   1.278       .  A
O5          Cu10   2.005       .  S
O5           C14   1.277       .  A
O6          Cu10   2.003       .  S
O6           C13   1.277       .  A
O7          Cu10   1.999       .  S
O7           C12   1.276       .  A
O8          Cu10   2.001       .  S
O8           C11   1.277       .  A
Cu9         Cu10   2.377       .  S
C11         C576   1.464       .  S
C12         C294   1.464       .  S
C13         C514   1.466       .  S
C14         C356   1.468       .  S
O15         Cu23   2.020       .  S
O15          C25   1.279       .  A
O16         Cu23   2.015       .  S
O16          C26   1.279       .  A
O17         Cu23   2.010       .  S
O17          C27   1.277       .  A
O18         Cu23   2.010       .  S
O18          C28   1.277       .  A
O19         Cu24   2.002       .  S
O19          C28   1.277       .  A
O20         Cu24   2.005       .  S
O20          C27   1.277       .  A
O21         Cu24   2.001       .  S
O21          C26   1.276       .  A
O22         Cu24   2.003       .  S
O22          C25   1.277       .  A
Cu23        Cu24   2.377       .  S
C25         C218   1.469       .  S
C26         C366   1.467       .  S
C27         C170   1.467       .  S
C28         C414   1.466       .  S
O29         Cu37   2.020       .  S
O29          C39   1.278       .  A
O30         Cu37   2.018       .  S
O30          C40   1.279       .  A
O31         Cu37   2.012       .  S
O31          C41   1.278       .  A
O32         Cu37   2.014       .  S
O32          C42   1.277       .  A
O33         Cu38   2.007       .  S
O33          C42   1.278       .  A
O34         Cu38   2.006       .  S
O34          C41   1.277       .  A
O35         Cu38   2.012       .  S
O35          C40   1.277       .  A
O36         Cu38   2.012       .  S
O36          C39   1.278       .  A
Cu37        Cu38   2.375       .  S
C39         C180   1.473       .  S
C40         C648   1.472       .  S
C41         C118   1.468       .  S
C42         C586   1.469       .  S
N43          N44   1.322       .  A
N43          C47   1.343       .  A
N43         Cu51   2.065       .  S
N44          C45   1.346       .  A
N44         Cu50   2.079       .  S
C45          C46   1.385       .  A
C45          H48   1.082       .  S
C46         C460   1.467       .  S
C46          C47   1.380       .  A
C47          H49   1.082       .  S
Cu50         N53   2.080       .  S
Cu51         N61   2.066       .  S
Cu52         N54   2.078       .  S
Cu52         N60   2.079       .  S
N53          N54   1.323       .  A
N53          C57   1.344       .  A
N54          C55   1.348       .  A
C55          C56   1.384       .  A
C55          H58   1.082       .  S
C56         C631   1.471       .  S
C56          C57   1.383       .  A
C57          H59   1.082       .  S
N60          N61   1.321       .  A
N60          C64   1.343       .  A
N61          C62   1.345       .  A
C62          C63   1.387       .  A
C62          H65   1.081       .  S
C63        C1018   1.489       .  S
C63          C64   1.388       .  A
C64          H66   1.082       .  S
N67          N68   1.321       .  A
N67          C71   1.344       .  A
N67         Cu75   2.063       .  S
N68          C69   1.341       .  A
N68         Cu74   2.055       .  S
C69          C70   1.379       .  A
C69          H72   1.082       .  S
C70         C101   1.459       .  S
C70          C71   1.381       .  A
C71          H73   1.082       .  S
Cu74         N77   2.056       .  S
Cu75         N85   2.064       .  S
Cu76         N78   2.080       .  S
Cu76         N84   2.080       .  S
N77          N78   1.322       .  A
N77          C81   1.342       .  A
N78          C79   1.346       .  A
C79          C80   1.384       .  A
C79          H82   1.082       .  S
C80         C288   1.464       .  S
C80          C81   1.379       .  A
C81          H83   1.082       .  S
N84          N85   1.321       .  A
N84          C88   1.346       .  A
N85          C86   1.342       .  A
C86          C87   1.384       .  A
C86          H89   1.082       .  S
C87        C1013   1.486       .  S
C87          C88   1.388       .  A
C88          H90   1.081       .  S
O91         Cu99   2.001       .  S
O91         C101   1.276       .  A
O92         Cu99   2.006       .  S
O92         C102   1.277       .  A
O93         Cu99   2.022       .  S
O93         C103   1.279       .  A
O94         Cu99   2.022       .  S
O94         C104   1.279       .  A
O95        Cu100   2.010       .  S
O95         C104   1.277       .  A
O96        Cu100   2.007       .  S
O96         C103   1.277       .  A
O97        Cu100   1.996       .  S
O97         C102   1.276       .  A
O98        Cu100   1.993       .  S
O98         C101   1.276       .  A
Cu99       Cu100   2.377       .  S
C102        C328   1.461       .  S
C103        C142   1.472       .  S
C104        C500   1.473       .  S
N105        N106   1.323       .  A
N105        C109   1.346       .  A
N105       Cu113   2.081       .  S
N106        C107   1.344       .  A
N106       Cu112   2.067       .  S
C107        C108   1.381       .  A
C107        H110   1.082       .  S
C108        C462   1.468       .  S
C108        C109   1.384       .  A
C109        H111   1.082       .  S
Cu112       N115   2.067       .  S
Cu113       N123   2.081       .  S
Cu114       N116   2.075       .  S
Cu114       N122   2.076       .  S
N115        N116   1.322       .  A
N115        C119   1.344       .  A
N116        C117   1.346       .  A
C117        C118   1.384       .  A
C117        H120   1.082       .  S
C118        C119   1.382       .  A
C119        H121   1.082       .  S
N122        N123   1.322       .  A
N122        C126   1.344       .  A
N123        C124   1.346       .  A
C124        C125   1.388       .  A
C124        H127   1.082       .  S
C125        C989   1.490       .  S
C125        C126   1.387       .  A
C126        H128   1.081       .  S
N129        N130   1.322       .  A
N129        C133   1.346       .  A
N129       Cu137   2.076       .  S
N130        C131   1.346       .  A
N130       Cu136   2.078       .  S
C131        C132   1.384       .  A
C131        H134   1.082       .  S
C132        C166   1.473       .  S
C132        C133   1.384       .  A
C133        H135   1.082       .  S
Cu136       N139   2.078       .  S
Cu137       N147   2.076       .  S
Cu138       N140   2.082       .  S
Cu138       N146   2.082       .  S
N139        N140   1.323       .  A
N139        C143   1.344       .  A
N140        C141   1.348       .  A
C141        C142   1.385       .  A
C141        H144   1.082       .  S
C142        C143   1.383       .  A
C143        H145   1.082       .  S
N146        N147   1.323       .  A
N146        C150   1.346       .  A
N147        C148   1.345       .  A
C148        C149   1.385       .  A
C148        H151   1.081       .  S
C149        C994   1.487       .  S
C149        C150   1.387       .  A
C150        H152   1.082       .  S
O153       Cu161   1.994       .  S
O153        C163   1.276       .  A
O154       Cu161   1.992       .  S
O154        C164   1.275       .  A
O155       Cu161   2.011       .  S
O155        C165   1.278       .  A
O156       Cu161   2.013       .  S
O156        C166   1.278       .  A
O157       Cu162   2.018       .  S
O157        C166   1.279       .  A
O158       Cu162   2.016       .  S
O158        C165   1.278       .  A
O159       Cu162   2.015       .  S
O159        C164   1.278       .  A
O160       Cu162   2.014       .  S
O160        C163   1.278       .  A
Cu161      Cu162   2.376       .  S
C163        C696   1.464       .  S
C164        C204   1.464       .  S
C165        C524   1.471       .  S
N167        N168   1.321       .  A
N167        C171   1.346       .  A
N167       Cu175   2.070       .  S
N168        C169   1.344       .  A
N168       Cu174   2.070       .  S
C169        C170   1.382       .  A
C169        H172   1.082       .  S
C170        C171   1.383       .  A
C171        H173   1.082       .  S
Cu174       N177   2.071       .  S
Cu175       N185   2.070       .  S
Cu176       N178   2.089       .  S
Cu176       N184   2.090       .  S
N177        N178   1.323       .  A
N177        C181   1.344       .  A
N178        C179   1.349       .  A
C179        C180   1.387       .  A
C179        H182   1.082       .  S
C180        C181   1.382       .  A
C181        H183   1.082       .  S
N184        N185   1.323       .  A
N184        C188   1.347       .  A
N185        C186   1.344       .  A
C186        C187   1.383       .  A
C186        H189   1.082       .  S
C187        C965   1.485       .  S
C187        C188   1.387       .  A
C188        H190   1.082       .  S
N191        N192   1.322       .  A
N191        C195   1.345       .  A
N191       Cu199   2.075       .  S
N192        C193   1.344       .  A
N192       Cu198   2.066       .  S
C193        C194   1.381       .  A
C193        H196   1.082       .  S
C194        C273   1.465       .  S
C194        C195   1.382       .  A
C195        H197   1.082       .  S
Cu198       N201   2.066       .  S
Cu199       N209   2.076       .  S
Cu200       N202   2.070       .  S
Cu200       N208   2.071       .  S
N201        N202   1.322       .  A
N201        C205   1.342       .  A
N202        C203   1.346       .  A
C203        C204   1.382       .  A
C203        H206   1.082       .  S
C204        C205   1.381       .  A
C205        H207   1.082       .  S
N208        N209   1.321       .  A
N208        C212   1.344       .  A
N209        C210   1.345       .  A
C210        C211   1.387       .  A
C210        H213   1.082       .  S
C211        C970   1.487       .  S
C211        C212   1.386       .  A
C212        H214   1.081       .  S
N215        N216   1.322       .  A
N215        C219   1.347       .  A
N215       Cu223   2.076       .  S
N216        C217   1.344       .  A
N216       Cu222   2.072       .  S
C217        C218   1.382       .  A
C217        H220   1.082       .  S
C218        C219   1.384       .  A
C219        H221   1.082       .  S
Cu222       N225   2.072       .  S
Cu223       N233   2.077       .  S
Cu224       N226   2.072       .  S
Cu224       N232   2.073       .  S
N225        N226   1.322       .  A
N225        C229   1.345       .  A
N226        C227   1.345       .  A
C227        C228   1.383       .  A
C227        H230   1.082       .  S
C228        C633   1.467       .  S
C228        C229   1.382       .  A
C229        H231   1.082       .  S
N232        N233   1.322       .  A
N232        C236   1.345       .  A
N233        C234   1.344       .  A
C234        C235   1.386       .  A
C234        H237   1.081       .  S
C235        C941   1.485       .  S
C235        C236   1.385       .  A
C236        H238   1.082       .  S
N239        N240   1.322       .  A
N239        C243   1.346       .  A
N239       Cu247   2.072       .  S
N240        C241   1.344       .  A
N240       Cu246   2.073       .  S
C241        C242   1.382       .  A
C241        H244   1.082       .  S
C242        C275   1.467       .  S
C242        C243   1.383       .  A
C243        H245   1.082       .  S
Cu246       N249   2.074       .  S
Cu247       N257   2.072       .  S
Cu248       N250   2.083       .  S
Cu248       N256   2.082       .  S
N249        N250   1.322       .  A
N249        C253   1.345       .  A
N250        C251   1.348       .  A
C251        C252   1.385       .  A
C251        H254   1.082       .  S
C252        C290   1.474       .  S
C252        C253   1.384       .  A
C253        H255   1.082       .  S
N256        N257   1.322       .  A
N256        C260   1.345       .  A
N257        C258   1.344       .  A
C258        C259   1.387       .  A
C258        H261   1.080       .  S
C259        C946   1.490       .  S
C259        C260   1.388       .  A
C260        H262   1.082       .  S
O263       Cu271   2.006       .  S
O263        C273   1.277       .  A
O264       Cu271   2.008       .  S
O264        C274   1.277       .  A
O265       Cu271   2.012       .  S
O265        C275   1.278       .  A
O266       Cu271   2.011       .  S
O266        C276   1.278       .  A
O267       Cu272   2.001       .  S
O267        C276   1.276       .  A
O268       Cu272   2.003       .  S
O268        C275   1.277       .  A
O269       Cu272   2.007       .  S
O269        C274   1.278       .  A
O270       Cu272   2.006       .  S
O270        C273   1.277       .  A
Cu271      Cu272   2.377       .  S
C274        C476   1.467       .  S
C276        C304   1.465       .  S
O277       Cu285   2.000       .  S
O277        C287   1.277       .  A
O278       Cu285   2.000       .  S
O278        C288   1.277       .  A
O279       Cu285   2.009       .  S
O279        C289   1.278       .  A
O280       Cu285   2.011       .  S
O280        C290   1.278       .  A
O281       Cu286   2.024       .  S
O281        C290   1.279       .  A
O282       Cu286   2.022       .  S
O282        C289   1.279       .  A
O283       Cu286   2.009       .  S
O283        C288   1.277       .  A
O284       Cu286   2.008       .  S
O284        C287   1.277       .  A
Cu285      Cu286   2.376       .  S
C287        C548   1.464       .  S
C289        C720   1.473       .  S
N291        N292   1.322       .  A
N291        C295   1.345       .  A
N291       Cu299   2.066       .  S
N292        C293   1.343       .  A
N292       Cu298   2.066       .  S
C293        C294   1.381       .  A
C293        H296   1.082       .  S
C294        C295   1.382       .  A
C295        H297   1.082       .  S
Cu298       N301   2.067       .  S
Cu299       N309   2.067       .  S
Cu300       N302   2.072       .  S
Cu300       N308   2.073       .  S
N301        N302   1.322       .  A
N301        C305   1.344       .  A
N302        C303   1.345       .  A
C303        C304   1.382       .  A
C303        H306   1.082       .  S
C304        C305   1.381       .  A
C305        H307   1.082       .  S
N308        N309   1.322       .  A
N308        C312   1.344       .  A
N309        C310   1.343       .  A
C310        C311   1.384       .  A
C310        H313   1.082       .  S
C311        C917   1.481       .  S
C311        C312   1.385       .  A
C312        H314   1.082       .  S
N315        N316   1.321       .  A
N315        C319   1.345       .  A
N315       Cu323   2.073       .  S
N316        C317   1.344       .  A
N316       Cu322   2.063       .  S
C317        C318   1.381       .  A
C317        H320   1.082       .  S
C318        C349   1.466       .  S
C318        C319   1.383       .  A
C319        H321   1.082       .  S
Cu322       N325   2.062       .  S
Cu323       N333   2.073       .  S
Cu324       N326   2.069       .  S
Cu324       N332   2.070       .  S
N325        N326   1.322       .  A
N325        C329   1.342       .  A
N326        C327   1.345       .  A
C327        C328   1.382       .  A
C327        H330   1.082       .  S
C328        C329   1.379       .  A
C329        H331   1.082       .  S
N332        N333   1.322       .  A
N332        C336   1.344       .  A
N333        C334   1.344       .  A
C334        C335   1.384       .  A
C334        H337   1.082       .  S
C335        C922   1.481       .  S
C335        C336   1.385       .  A
C336        H338   1.082       .  S
O339       Cu347   2.006       .  S
O339        C349   1.277       .  A
O340       Cu347   2.007       .  S
O340        C350   1.277       .  A
O341       Cu347   2.001       .  S
O341        C351   1.277       .  A
O342       Cu347   1.999       .  S
O342        C352   1.276       .  A
O343       Cu348   2.012       .  S
O343        C352   1.278       .  A
O344       Cu348   2.013       .  S
O344        C351   1.278       .  A
O345       Cu348   2.016       .  S
O345        C350   1.278       .  A
O346       Cu348   2.011       .  S
O346        C349   1.277       .  A
Cu347      Cu348   2.377       .  S
C350        C638   1.470       .  S
C351        C380   1.466       .  S
C352        C686   1.465       .  S
N353        N354   1.323       .  A
N353        C357   1.345       .  A
N353       Cu361   2.073       .  S
N354        C355   1.345       .  A
N354       Cu360   2.075       .  S
C355        C356   1.382       .  A
C355        H358   1.082       .  S
C356        C357   1.382       .  A
C357        H359   1.082       .  S
Cu360       N363   2.075       .  S
Cu361       N371   2.073       .  S
Cu362       N364   2.067       .  S
Cu362       N370   2.067       .  S
N363        N364   1.322       .  A
N363        C367   1.345       .  A
N364        C365   1.345       .  A
C365        C366   1.382       .  A
C365        H368   1.082       .  S
C366        C367   1.383       .  A
C367        H369   1.082       .  S
N370        N371   1.322       .  A
N370        C374   1.343       .  A
N371        C372   1.345       .  A
C372        C373   1.384       .  A
C372        H375   1.082       .  S
C373        C893   1.479       .  S
C373        C374   1.383       .  A
C374        H376   1.082       .  S
N377        N378   1.322       .  A
N377        C381   1.347       .  A
N377       Cu385   2.075       .  S
N378        C379   1.342       .  A
N378       Cu384   2.066       .  S
C379        C380   1.380       .  A
C379        H382   1.082       .  S
C380        C381   1.384       .  A
C381        H383   1.082       .  S
Cu384       N387   2.066       .  S
Cu385       N395   2.076       .  S
Cu386       N388   2.074       .  S
Cu386       N394   2.075       .  S
N387        N388   1.321       .  A
N387        C391   1.343       .  A
N388        C389   1.347       .  A
C389        C390   1.384       .  A
C389        H392   1.082       .  S
C390        C459   1.467       .  S
C390        C391   1.381       .  A
C391        H393   1.082       .  S
N394        N395   1.322       .  A
N394        C398   1.344       .  A
N395        C396   1.345       .  A
C396        C397   1.386       .  A
C396        H399   1.082       .  S
C397        C898   1.485       .  S
C397        C398   1.386       .  A
C398        H400   1.081       .  S
N401        N402   1.322       .  A
N401        C405   1.344       .  A
N401       Cu409   2.068       .  S
N402        C403   1.342       .  A
N402       Cu408   2.061       .  S
C403        C404   1.379       .  A
C403        H406   1.082       .  S
C404        C570   1.462       .  S
C404        C405   1.382       .  A
C405        H407   1.082       .  S
Cu408       N411   2.062       .  S
Cu409       N419   2.069       .  S
Cu410       N412   2.073       .  S
Cu410       N418   2.073       .  S
N411        N412   1.321       .  A
N411        C415   1.343       .  A
N412        C413   1.345       .  A
C413        C414   1.383       .  A
C413        H416   1.082       .  S
C414        C415   1.381       .  A
C415        H417   1.082       .  S
N418        N419   1.322       .  A
N418        C422   1.344       .  A
N419        C420   1.345       .  A
C420        C421   1.383       .  A
C420        H423   1.082       .  S
C421        C869   1.479       .  S
C421        C422   1.384       .  A
C422        H424   1.082       .  S
N425        N426   1.321       .  A
N425        C429   1.346       .  A
N425       Cu433   2.073       .  S
N426        C427   1.343       .  A
N426       Cu432   2.064       .  S
C427        C428   1.381       .  A
C427        H430   1.082       .  S
C428        C742   1.467       .  S
C428        C429   1.384       .  A
C429        H431   1.082       .  S
Cu432       N435   2.064       .  S
Cu433       N443   2.073       .  S
Cu434       N436   2.074       .  S
Cu434       N442   2.075       .  S
N435        N436   1.322       .  A
N435        C439   1.343       .  A
N436        C437   1.346       .  A
C437        C438   1.384       .  A
C437        H440   1.082       .  S
C438        C461   1.465       .  S
C438        C439   1.380       .  A
C439        H441   1.082       .  S
N442        N443   1.322       .  A
N442        C446   1.345       .  A
N443        C444   1.344       .  A
C444        C445   1.385       .  A
C444        H447   1.082       .  S
C445        C874   1.485       .  S
C445        C446   1.387       .  A
C446        H448   1.081       .  S
O449       Cu457   2.003       .  S
O449        C459   1.277       .  A
O450       Cu457   2.005       .  S
O450        C460   1.276       .  A
O451       Cu457   2.006       .  S
O451        C461   1.278       .  A
O452       Cu457   2.009       .  S
O452        C462   1.278       .  A
O453       Cu458   2.010       .  S
O453        C462   1.277       .  A
O454       Cu458   2.005       .  S
O454        C461   1.277       .  A
O455       Cu458   2.011       .  S
O455        C460   1.278       .  A
O456       Cu458   2.015       .  S
O456        C459   1.278       .  A
Cu457      Cu458   2.377       .  S
N463        N464   1.322       .  A
N463        C467   1.346       .  A
N463       Cu471   2.077       .  S
N464        C465   1.342       .  A
N464       Cu470   2.057       .  S
C465        C466   1.379       .  A
C465        H468   1.082       .  S
C466        C572   1.465       .  S
C466        C467   1.384       .  A
C467        H469   1.082       .  S
Cu470       N473   2.058       .  S
Cu471       N481   2.078       .  S
Cu472       N474   2.079       .  S
Cu472       N480   2.080       .  S
N473        N474   1.321       .  A
N473        C477   1.342       .  A
N474        C475   1.346       .  A
C475        C476   1.385       .  A
C475        H478   1.082       .  S
C476        C477   1.380       .  A
C477        H479   1.082       .  S
N480        N481   1.323       .  A
N480        C484   1.345       .  A
N481        C482   1.345       .  A
C482        C483   1.386       .  A
C482        H485   1.082       .  S
C483        C845   1.489       .  S
C483        C484   1.387       .  A
C484        H486   1.081       .  S
N487        N488   1.323       .  A
N487        C491   1.347       .  A
N487       Cu495   2.077       .  S
N488        C489   1.346       .  A
N488       Cu494   2.084       .  S
C489        C490   1.384       .  A
C489        H492   1.082       .  S
C490        C744   1.472       .  S
C490        C491   1.383       .  A
C491        H493   1.082       .  S
Cu494       N497   2.084       .  S
Cu495       N505   2.077       .  S
Cu496       N498   2.076       .  S
Cu496       N504   2.077       .  S
N497        N498   1.323       .  A
N497        C501   1.346       .  A
N498        C499   1.346       .  A
C499        C500   1.383       .  A
C499        H502   1.082       .  S
C500        C501   1.385       .  A
C501        H503   1.082       .  S
N504        N505   1.322       .  A
N504        C508   1.346       .  A
N505        C506   1.345       .  A
C506        C507   1.386       .  A
C506        H509   1.082       .  S
C507        C850   1.485       .  S
C507        C508   1.386       .  A
C508        H510   1.082       .  S
N511        N512   1.322       .  A
N511        C515   1.346       .  A
N511       Cu519   2.072       .  S
N512        C513   1.343       .  A
N512       Cu518   2.069       .  S
C513        C514   1.381       .  A
C513        H516   1.082       .  S
C514        C515   1.383       .  A
C515        H517   1.082       .  S
Cu518       N521   2.070       .  S
Cu519       N529   2.072       .  S
Cu520       N522   2.084       .  S
Cu520       N528   2.084       .  S
N521        N522   1.322       .  A
N521        C525   1.344       .  A
N522        C523   1.348       .  A
C523        C524   1.385       .  A
C523        H526   1.082       .  S
C524        C525   1.382       .  A
C525        H527   1.082       .  S
N528        N529   1.323       .  A
N528        C532   1.346       .  A
N529        C530   1.345       .  A
C530        C531   1.384       .  A
C530        H533   1.082       .  S
C531        C821   1.484       .  S
C531        C532   1.386       .  A
C532        H534   1.082       .  S
N535        N536   1.322       .  A
N535        C539   1.345       .  A
N535       Cu543   2.072       .  S
N536        C537   1.343       .  A
N536       Cu542   2.060       .  S
C537        C538   1.380       .  A
C537        H540   1.082       .  S
C538        C569   1.463       .  S
C538        C539   1.382       .  A
C539        H541   1.082       .  S
Cu542       N545   2.060       .  S
Cu543       N553   2.073       .  S
Cu544       N546   2.072       .  S
Cu544       N552   2.073       .  S
N545        N546   1.322       .  A
N545        C549   1.342       .  A
N546        C547   1.346       .  A
C547        C548   1.383       .  A
C547        H550   1.082       .  S
C548        C549   1.380       .  A
C549        H551   1.082       .  S
N552        N553   1.322       .  A
N552        C556   1.344       .  A
N553        C554   1.345       .  A
C554        C555   1.387       .  A
C554        H557   1.081       .  S
C555        C826   1.486       .  S
C555        C556   1.385       .  A
C556        H558   1.082       .  S
O559       Cu567   2.005       .  S
O559        C569   1.277       .  A
O560       Cu567   2.002       .  S
O560        C570   1.277       .  A
O561       Cu567   2.008       .  S
O561        C571   1.278       .  A
O562       Cu567   2.007       .  S
O562        C572   1.277       .  A
O563       Cu568   2.003       .  S
O563        C572   1.277       .  A
O564       Cu568   2.005       .  S
O564        C571   1.277       .  A
O565       Cu568   1.999       .  S
O565        C570   1.277       .  A
O566       Cu568   2.000       .  S
O566        C569   1.277       .  A
Cu567      Cu568   2.378       .  S
C571        C600   1.466       .  S
N573        N574   1.321       .  A
N573        C577   1.345       .  A
N573       Cu581   2.069       .  S
N574        C575   1.343       .  A
N574       Cu580   2.063       .  S
C575        C576   1.381       .  A
C575        H578   1.082       .  S
C576        C577   1.382       .  A
C577        H579   1.082       .  S
Cu580       N583   2.064       .  S
Cu581       N591   2.070       .  S
Cu582       N584   2.084       .  S
Cu582       N590   2.084       .  S
N583        N584   1.322       .  A
N583        C587   1.343       .  A
N584        C585   1.348       .  A
C585        C586   1.386       .  A
C585        H588   1.082       .  S
C586        C587   1.380       .  A
C587        H589   1.082       .  S
N590        N591   1.323       .  A
N590        C594   1.346       .  A
N591        C592   1.344       .  A
C592        C593   1.384       .  A
C592        H595   1.081       .  S
C593        C797   1.485       .  S
C593        C594   1.386       .  A
C594        H596   1.082       .  S
N597        N598   1.323       .  A
N597        C601   1.344       .  A
N597       Cu605   2.069       .  S
N598        C599   1.345       .  A
N598       Cu604   2.075       .  S
C599        C600   1.383       .  A
C599        H602   1.082       .  S
C600        C601   1.381       .  A
C601        H603   1.082       .  S
Cu604       N607   2.076       .  S
Cu605       N615   2.069       .  S
Cu606       N608   2.072       .  S
Cu606       N614   2.072       .  S
N607        N608   1.322       .  A
N607        C611   1.344       .  A
N608        C609   1.347       .  A
C609        C610   1.383       .  A
C609        H612   1.082       .  S
C610        C632   1.469       .  S
C610        C611   1.383       .  A
C611        H613   1.082       .  S
N614        N615   1.322       .  A
N614        C618   1.344       .  A
N615        C616   1.345       .  A
C616        C617   1.383       .  A
C616        H619   1.082       .  S
C617        C802   1.478       .  S
C617        C618   1.383       .  A
C618        H620   1.082       .  S
O621       Cu629   2.028       .  S
O621        C631   1.280       .  A
O622       Cu629   2.025       .  S
O622        C632   1.280       .  A
O623       Cu629   2.007       .  S
O623        C633   1.277       .  A
O624       Cu629   2.009       .  S
O624        C634   1.277       .  A
O625       Cu630   2.006       .  S
O625        C634   1.278       .  A
O626       Cu630   2.009       .  S
O626        C633   1.278       .  A
O627       Cu630   1.997       .  S
O627        C632   1.276       .  A
O628       Cu630   1.998       .  S
O628        C631   1.276       .  A
Cu629      Cu630   2.376       .  S
C634        C672   1.466       .  S
N635        N636   1.323       .  A
N635        C639   1.347       .  A
N635       Cu643   2.079       .  S
N636        C637   1.345       .  A
N636       Cu642   2.079       .  S
C637        C638   1.382       .  A
C637        H640   1.082       .  S
C638        C639   1.384       .  A
C639        H641   1.082       .  S
Cu642       N645   2.079       .  S
Cu643       N653   2.079       .  S
Cu644       N646   2.074       .  S
Cu644       N652   2.074       .  S
N645        N646   1.322       .  A
N645        C649   1.347       .  A
N646        C647   1.346       .  A
C647        C648   1.383       .  A
C647        H650   1.082       .  S
C648        C649   1.385       .  A
C649        H651   1.082       .  S
N652        N653   1.322       .  A
N652        C656   1.344       .  A
N653        C654   1.346       .  A
C654        C655   1.388       .  A
C654        H657   1.081       .  S
C655        C773   1.489       .  S
C655        C656   1.386       .  A
C656        H658   1.082       .  S
N659        N660   1.321       .  A
N659        C663   1.347       .  A
N659       Cu667   2.081       .  S
N660        C661   1.344       .  A
N660       Cu666   2.065       .  S
C661        C662   1.381       .  A
C661        H664   1.082       .  S
C662        C743   1.469       .  S
C662        C663   1.385       .  A
C663        H665   1.082       .  S
Cu666       N669   2.065       .  S
Cu667       N677   2.081       .  S
Cu668       N670   2.078       .  S
Cu668       N676   2.078       .  S
N669        N670   1.322       .  A
N669        C673   1.343       .  A
N670        C671   1.347       .  A
C671        C672   1.384       .  A
C671        H674   1.082       .  S
C672        C673   1.380       .  A
C673        H675   1.082       .  S
N676        N677   1.323       .  A
N676        C680   1.346       .  A
N677        C678   1.345       .  A
C678        C679   1.385       .  A
C678        H681   1.082       .  S
C679        C778   1.484       .  S
C679        C680   1.385       .  A
C680        H682   1.082       .  S
N683        N684   1.321       .  A
N683        C687   1.343       .  A
N683       Cu691   2.061       .  S
N684        C685   1.344       .  A
N684       Cu690   2.069       .  S
C685        C686   1.383       .  A
C685        H688   1.082       .  S
C686        C687   1.381       .  A
C687        H689   1.082       .  S
Cu690       N693   2.069       .  S
Cu691       N701   2.062       .  S
Cu692       N694   2.072       .  S
Cu692       N700   2.072       .  S
N693        N694   1.323       .  A
N693        C697   1.342       .  A
N694        C695   1.346       .  A
C695        C696   1.382       .  A
C695        H698   1.082       .  S
C696        C697   1.380       .  A
C697        H699   1.082       .  S
N700        N701   1.321       .  A
N700        C704   1.345       .  A
N701        C702   1.342       .  A
C702        C703   1.382       .  A
C702        H705   1.082       .  S
C703        C749   1.478       .  S
C703        C704   1.385       .  A
C704        H706   1.082       .  S
N707        N708   1.322       .  A
N707        C711   1.345       .  A
N707       Cu715   2.066       .  S
N708        C709   1.344       .  A
N708       Cu714   2.076       .  S
C709        C710   1.383       .  A
C709        H712   1.082       .  S
C710        C741   1.466       .  S
C710        C711   1.382       .  A
C711        H713   1.082       .  S
Cu714       N717   2.077       .  S
Cu715       N725   2.066       .  S
Cu716       N718   2.082       .  S
Cu716       N724   2.082       .  S
N717        N718   1.322       .  A
N717        C721   1.345       .  A
N718        C719   1.348       .  A
C719        C720   1.385       .  A
C719        H722   1.082       .  S
C720        C721   1.383       .  A
C721        H723   1.082       .  S
N724        N725   1.323       .  A
N724        C728   1.345       .  A
N725        C726   1.344       .  A
C726        C727   1.383       .  A
C726        H729   1.082       .  S
C727        C754   1.482       .  S
C727        C728   1.386       .  A
C728        H730   1.082       .  S
O731       Cu739   2.002       .  S
O731        C741   1.276       .  A
O732       Cu739   2.002       .  S
O732        C742   1.277       .  A
O733       Cu739   2.010       .  S
O733        C743   1.278       .  A
O734       Cu739   2.009       .  S
O734        C744   1.277       .  A
O735       Cu740   2.019       .  S
O735        C744   1.279       .  A
O736       Cu740   2.015       .  S
O736        C743   1.278       .  A
O737       Cu740   2.015       .  S
O737        C742   1.278       .  A
O738       Cu740   2.012       .  S
O738        C741   1.278       .  A
Cu739      Cu740   2.376       .  S
C745        C746   1.408       .  A
C745        C750   1.398   1_455  A
C745        C759   1.444       .  S
C746        C751   1.477       .  S
C746        C747   1.400       .  A
C747        C748   1.400   1_455  A
C747        H766   1.085       .  S
C748        C749   1.414       .  A
C748        C760   1.444       .  S
C749        C750   1.404       .  A
C750        H765   1.084       .  S
C751        C752   1.400       .  A
C751        C756   1.407       .  A
C752        C753   1.399       .  A
C752        H767   1.085       .  S
C753        C754   1.414       .  A
C753        C757   1.443       .  S
C754        C755   1.407       .  A
C755        C756   1.400       .  A
C755        H768   1.084       .  S
C756        C758   1.444       .  S
C757        N761   1.157       .  T
C758        N762   1.157       .  T
C759        N764   1.157       .  T
C760        N763   1.157       .  T
C769        C770   1.407       .  A
C769        C774   1.400   1_455  A
C769        C783   1.444       .  S
C770        C775   1.483       .  S
C770        C771   1.401       .  A
C771        C772   1.403   1_455  A
C771        H790   1.085       .  S
C772        C773   1.416       .  A
C772        C784   1.443       .  S
C773        C774   1.407       .  A
C774        H789   1.084       .  S
C775        C776   1.401       .  A
C775        C780   1.409       .  A
C776        C777   1.401       .  A
C776        H791   1.085       .  S
C777        C778   1.415       .  A
C777        C781   1.444       .  S
C778        C779   1.406       .  A
C779        C780   1.402       .  A
C779        H792   1.084       .  S
C780        C782   1.444       .  S
C781        N785   1.157       .  T
C782        N786   1.157       .  T
C783        N788   1.157       .  T
C784        N787   1.157       .  T
C793        C794   1.408       .  A
C793        C798   1.400   1_455  A
C793        C807   1.444       .  S
C794        C799   1.480       .  S
C794        C795   1.400       .  A
C795        C796   1.401   1_455  A
C795        H814   1.085       .  S
C796        C797   1.417       .  A
C796        C808   1.443       .  S
C797        C798   1.405       .  A
C798        H813   1.084       .  S
C799        C800   1.402       .  A
C799        C804   1.408       .  A
C800        C801   1.401       .  A
C800        H815   1.085       .  S
C801        C802   1.412       .  A
C801        C805   1.443       .  S
C802        C803   1.404       .  A
C803        C804   1.399       .  A
C803        H816   1.085       .  S
C804        C806   1.444       .  S
C805        N809   1.157       .  T
C806        N810   1.157       .  T
C807        N812   1.157       .  T
C808        N811   1.157       .  T
C817        C818   1.409       .  A
C817        C822   1.400   1_455  A
C817        C831   1.444       .  S
C818        C823   1.483       .  S
C818        C819   1.401       .  A
C819        C820   1.402   1_455  A
C819        H838   1.085       .  S
C820        C821   1.415       .  A
C820        C832   1.443       .  S
C821        C822   1.405       .  A
C822        H837   1.084       .  S
C823        C824   1.401       .  A
C823        C828   1.409       .  A
C824        C825   1.402       .  A
C824        H839   1.085       .  S
C825        C826   1.416       .  A
C825        C829   1.444       .  S
C826        C827   1.406       .  A
C827        C828   1.399       .  A
C827        H840   1.084       .  S
C828        C830   1.444       .  S
C829        N833   1.157       .  T
C830        N834   1.157       .  T
C831        N836   1.157       .  T
C832        N835   1.157       .  T
C841        C842   1.409       .  A
C841        C846   1.401   1_554  A
C841        C855   1.444       .  S
C842        C847   1.484       .  S
C842        C843   1.401       .  A
C843        C844   1.402   1_554  A
C843        H862   1.085       .  S
C844        C845   1.417       .  A
C844        C856   1.443       .  S
C845        C846   1.407       .  A
C846        H861   1.084       .  S
C847        C848   1.402       .  A
C847        C852   1.409       .  A
C848        C849   1.402       .  A
C848        H863   1.085       .  S
C849        C850   1.414       .  A
C849        C853   1.443       .  S
C850        C851   1.406       .  A
C851        C852   1.401       .  A
C851        H864   1.084       .  S
C852        C854   1.444       .  S
C853        N857   1.157       .  T
C854        N858   1.157       .  T
C855        N860   1.157       .  T
C856        N859   1.157       .  T
C865        C866   1.409       .  A
C865        C870   1.401   1_554  A
C865        C879   1.444       .  S
C866        C871   1.479       .  S
C866        C867   1.400       .  A
C867        C868   1.400   1_554  A
C867        H886   1.085       .  S
C868        C869   1.413       .  A
C868        C880   1.444       .  S
C869        C870   1.405       .  A
C870        H885   1.085       .  S
C871        C872   1.400       .  A
C871        C876   1.408       .  A
C872        C873   1.400       .  A
C872        H887   1.085       .  S
C873        C874   1.416       .  A
C873        C877   1.443       .  S
C874        C875   1.406       .  A
C875        C876   1.400       .  A
C875        H888   1.084       .  S
C876        C878   1.444       .  S
C877        N881   1.157       .  T
C878        N882   1.157       .  T
C879        N884   1.157       .  T
C880        N883   1.157       .  T
C889        C890   1.409       .  A
C889        C894   1.401   1_554  A
C889        C903   1.444       .  S
C890        C895   1.478       .  S
C890        C891   1.400       .  A
C891        C892   1.399   1_554  A
C891        H910   1.085       .  S
C892        C893   1.414       .  A
C892        C904   1.444       .  S
C893        C894   1.405       .  A
C894        H909   1.085       .  S
C895        C896   1.400       .  A
C895        C900   1.407       .  A
C896        C897   1.400       .  A
C896        H911   1.085       .  S
C897        C898   1.416       .  A
C897        C901   1.443       .  S
C898        C899   1.407       .  A
C899        C900   1.400       .  A
C899        H912   1.084       .  S
C900        C902   1.444       .  S
C901        N905   1.157       .  T
C902        N906   1.157       .  T
C903        N908   1.157       .  T
C904        N907   1.157       .  T
C913        C914   1.407       .  A
C913        C918   1.398   1_554  A
C913        C927   1.444       .  S
C914        C919   1.478       .  S
C914        C915   1.401       .  A
C915        C916   1.401   1_554  A
C915        H934   1.085       .  S
C916        C917   1.414       .  A
C916        C928   1.444       .  S
C917        C918   1.405       .  A
C918        H933   1.084       .  S
C919        C920   1.400       .  A
C919        C924   1.408       .  A
C920        C921   1.399       .  A
C920        H935   1.085       .  S
C921        C922   1.414       .  A
C921        C925   1.443       .  S
C922        C923   1.406       .  A
C923        C924   1.400       .  A
C923        H936   1.084       .  S
C924        C926   1.444       .  S
C925        N929   1.157       .  T
C926        N930   1.157       .  T
C927        N932   1.157       .  T
C928        N931   1.157       .  T
C937        C938   1.409       .  A
C937        C942   1.401       .  A
C937        C951   1.444       .  S
C938        C943   1.483   1_565  S
C938        C939   1.401       .  A
C939        C940   1.400       .  A
C939        H958   1.085       .  S
C940        C941   1.415       .  A
C940        C952   1.444       .  S
C941        C942   1.406       .  A
C942        H957   1.084       .  S
C943        C944   1.400       .  A
C943        C948   1.409       .  A
C944        C945   1.399       .  A
C944        H959   1.085       .  S
C945        C946   1.417       .  A
C945        C949   1.443       .  S
C946        C947   1.408       .  A
C947        C948   1.402       .  A
C947        H960   1.084       .  S
C948        C950   1.444       .  S
C949        N953   1.157       .  T
C950        N954   1.157       .  T
C951        N956   1.157       .  T
C952        N955   1.157       .  T
C961        C962   1.410       .  A
C961        C966   1.401       .  A
C961        C975   1.444       .  S
C962        C967   1.485   1_565  S
C962        C963   1.401       .  A
C963        C964   1.402       .  A
C963        H982   1.085       .  S
C964        C965   1.416       .  A
C964        C976   1.444       .  S
C965        C966   1.404       .  A
C966        H981   1.084       .  S
C967        C968   1.401       .  A
C967        C972   1.409       .  A
C968        C969   1.401       .  A
C968        H983   1.085       .  S
C969        C970   1.416       .  A
C969        C973   1.444       .  S
C970        C971   1.407       .  A
C971        C972   1.401       .  A
C971        H984   1.084       .  S
C972        C974   1.444       .  S
C973        N977   1.157       .  T
C974        N978   1.157       .  T
C975        N980   1.157       .  T
C976        N979   1.157       .  T
C985        C986   1.409       .  A
C985        C990   1.401       .  A
C985        C999   1.444       .  S
C986        C991   1.485   1_565  S
C986        C987   1.401       .  A
C987        C988   1.402       .  A
C987       H1006   1.085       .  S
C988        C989   1.417       .  A
C988       C1000   1.443       .  S
C989        C990   1.407       .  A
C990       H1005   1.084       .  S
C991        C992   1.401       .  A
C991        C996   1.410       .  A
C992        C993   1.401       .  A
C992       H1007   1.085       .  S
C993        C994   1.416       .  A
C993        C997   1.444       .  S
C994        C995   1.406       .  A
C995        C996   1.402       .  A
C995       H1008   1.084       .  S
C996        C998   1.444       .  S
C997       N1001   1.157       .  T
C998       N1002   1.157       .  T
C999       N1004   1.157       .  T
C1000      N1003   1.157       .  T
C1009      C1010   1.410       .  A
C1009      C1014   1.400       .  A
C1009      C1023   1.444       .  S
C1010      C1015   1.487   1_545  S
C1010      C1011   1.403       .  A
C1011      C1012   1.400       .  A
C1011      H1030   1.085       .  S
C1012      C1013   1.415       .  A
C1012      C1024   1.443       .  S
C1013      C1014   1.407       .  A
C1014      H1029   1.084       .  S
C1015      C1016   1.403       .  A
C1015      C1020   1.409       .  A
C1016      C1017   1.402       .  A
C1016      H1031   1.085       .  S
C1017      C1018   1.418       .  A
C1017      C1021   1.443       .  S
C1018      C1019   1.406       .  A
C1019      C1020   1.398       .  A
C1019      H1032   1.084       .  S
C1020      C1022   1.444       .  S
C1021      N1025   1.158       .  T
C1022      N1026   1.157       .  T
C1023      N1028   1.157       .  T
C1024      N1027   1.157       .  T
