geometry optimzed in LAMMPS
_audit_creation_date              2020-12-01 
_audit_creation_method            'lammps2cif' 
_symmetry_space_group_name_H-M    'P1' 
_symmetry_Int_Tables_number       1 
_symmetry_cell_setting            triclinic 
loop_ 
_symmetry_equiv_pos_as_xyz 
  x,y,z 
_cell_length_a                    23.98719802 
_cell_length_b                    23.998956721650256 
_cell_length_c                    47.730340281531944 
_cell_angle_alpha                 89.97271080987862 
_cell_angle_beta                  90.05465285391149 
_cell_angle_gamma                 89.990766312084 
loop_ 
_atom_site_label 
_atom_site_type_symbol 
_atom_site_fract_x 
_atom_site_fract_y 
_atom_site_fract_z 
_atom_site_charge 
C1          C  0.21303162  0.22474911  0.10983732     0.31400
C2          C  0.27620702  0.28755952  0.14312417     0.31400
C3          C  0.18661884  0.28120991  0.11797173    -0.04800
C4          C  0.22768132  0.19793194  0.13821156    -0.05600
C5          C  0.26986621  0.24098597  0.09743796    -0.05500
C6          C  0.21935018  0.31371470  0.13539081    -0.04900
C7          C  0.26056088  0.23039804  0.15533264    -0.05600
C8          C  0.30254310  0.27368929  0.11454404    -0.05500
C9          C  0.18966832  0.36225755  0.14078570    -0.30900
N10         N  0.13978949  0.36054757  0.12687667     0.15600
C11         C  0.13784667  0.31084718  0.11287519    -0.30900
H12         H  0.10360213  0.29732605  0.09975972     0.17500
C13         C  0.26910747  0.20092673  0.17995390    -0.29900
N14         N  0.24159673  0.15124160  0.17839597     0.14300
C15         C  0.21615451  0.14920363  0.15278564    -0.29900
C16         C  0.35118314  0.28522346  0.09987738    -0.30200
N17         N  0.34888376  0.25991377  0.07424651     0.14800
H18         H  0.38553957  0.31051346  0.10725598     0.17500
C19         C  0.29910703  0.23252591  0.07276459    -0.30200
H20         H  0.28511278  0.20816371  0.05502521     0.17500
H21         H  0.19053632  0.11509037  0.14542189     0.17500
H22         H  0.20346332  0.39636412  0.15389613     0.17500
H23         H  0.29334676  0.21481839  0.19776602     0.17500
N24         N  0.99405292  0.41978315  0.12518721    -0.35300
N25         N  0.90714504  0.50645615  0.12779960    -0.55800
N26         N  0.99414818  0.59290159  0.12536577    -0.35300
N27         N  0.08104258  0.50622707  0.12789134    -0.55800
C28         C  0.94812020  0.38898419  0.13162754     0.28300
C29         C  0.03993177  0.38887922  0.13167237     0.28300
C30         C  0.94827747  0.62379669  0.13182291     0.28300
C31         C  0.04010120  0.62365372  0.13186550     0.28300
C32         C  0.87541213  0.46090482  0.12192204     0.36900
C33         C  0.87545002  0.55210807  0.12201871     0.36900
C34         C  0.11271724  0.46064007  0.12203335     0.36900
C35         C  0.11278098  0.55180578  0.12210718     0.36900
C36         C  0.96518367  0.33823622  0.14256106    -0.20500
C37         C  0.02278714  0.33816882  0.14258509    -0.20500
C38         C  0.96545808  0.67444875  0.14278736    -0.20500
C39         C  0.02306514  0.67436154  0.14281025    -0.20500
C40         C  0.82373248  0.47787581  0.11213211    -0.21600
C41         C  0.82375510  0.53529884  0.11219448    -0.21600
C42         C  0.16439275  0.47751207  0.11225574    -0.21600
C43         C  0.16443248  0.53492261  0.11230144    -0.21600
C44         C  0.89131403  0.40426081  0.12661728    -0.16900
C45         C  0.09676000  0.40404623  0.12672886    -0.16900
C46         C  0.09690264  0.60839220  0.12688035    -0.16900
C47         C  0.89143030  0.60869132  0.12680027    -0.16900
H48         H  0.93891697  0.30462549  0.14990032     0.16000
H49         H  0.04900254  0.30450107  0.14994041     0.16000
H50         H  0.93926643  0.70810184  0.15013878     0.16000
H51         H  0.04935795  0.70793752  0.15017623     0.16000
H52         H  0.78954424  0.45171558  0.10538568     0.14200
H53         H  0.78959138  0.56156600  0.10549928     0.14200
H54         H  0.19853093  0.45129606  0.10552193     0.14200
H55         H  0.19860802  0.56113212  0.10560836     0.14200
H56         H  0.99408013  0.45739368  0.11433317     0.27500
H57         H  0.99410521  0.55534713  0.11448248     0.27500
C58         C  0.77536861  0.78839874  0.11012475     0.31400
C59         C  0.71218488  0.72537196  0.14328091     0.31400
C60         C  0.80171428  0.73179284  0.11816878    -0.04800
C61         C  0.76081867  0.81498400  0.13854414    -0.05600
C62         C  0.71844290  0.77237631  0.09768189    -0.05500
C63         C  0.76896285  0.69917864  0.13550783    -0.04900
C64         C  0.72794605  0.78239881  0.15559677    -0.05600
C65         C  0.68577854  0.73956454  0.11473045    -0.05500
C66         C  0.79855104  0.65050812  0.14082007    -0.30900
N67         N  0.84842489  0.65224386  0.12695381     0.15600
C68         C  0.85043593  0.70209270  0.11305425    -0.30900
H69         H  0.88470407  0.71568973  0.10000085     0.17500
C70         C  0.71925296  0.81177332  0.18021149    -0.29900
N71         N  0.74665624  0.86152441  0.17871891     0.14300
C72         C  0.77218082  0.86369787  0.15315458    -0.29900
C73         C  0.63707072  0.72819779  0.10005258    -0.30200
N74         N  0.63929287  0.75369150  0.07446033     0.14800
H75         H  0.60274950  0.70282852  0.10738252     0.17500
C76         C  0.68909542  0.78105787  0.07301869    -0.30200
H77         H  0.70306714  0.80548549  0.05529921     0.17500
H78         H  0.79766937  0.89793337  0.14582898     0.17500
H79         H  0.78470595  0.61631413  0.15386232     0.17500
H80         H  0.69490623  0.79781244  0.19795630     0.17500
N81         N  0.23588046  0.00619952  0.20789980    -0.35300
N82         N  0.24016126  0.09249289  0.25129528    -0.55800
N83         N  0.23488373  0.00613813  0.29471016    -0.35300
N84         N  0.23979972  0.91985547  0.25133186    -0.55800
C85         C  0.25028164  0.05188618  0.19269788     0.28300
C86         C  0.25015689  0.96047654  0.19271625     0.28300
C87         C  0.24907289  0.05182456  0.30996158     0.28300
C88         C  0.24890933  0.96039510  0.30998342     0.28300
C89         C  0.22854429  0.12407312  0.22838530     0.36900
C90         C  0.22805383  0.12404809  0.27412262     0.36900
C91         C  0.22826757  0.88828585  0.22842577     0.36900
C92         C  0.22776239  0.88824444  0.27416302     0.36900
C93         C  0.27439998  0.03490281  0.16774755    -0.20500
C94         C  0.27431965  0.97739805  0.16775869    -0.20500
C95         C  0.27280766  0.03481161  0.33503087    -0.20500
C96         C  0.27270026  0.97731179  0.33504540    -0.20500
C97         C  0.20826599  0.17548872  0.23674619    -0.21600
C98         C  0.20795251  0.17547167  0.26561803    -0.21600
C99         C  0.20810970  0.83681553  0.23679336    -0.21600
C100        C  0.20778978  0.83678974  0.26566438    -0.21600
C101        C  0.23960221  0.10836882  0.20014136    -0.16900
C102        C  0.23935818  0.90401738  0.20018164    -0.16900
C103        C  0.23828973  0.90391764  0.30247531    -0.16900
C104        C  0.23857949  0.10833724  0.30243777    -0.16900
H105        H  0.29064094  0.06114603  0.15122395     0.16000
H106        H  0.29048930  0.95111200  0.15124495     0.16000
H107        H  0.28887101  0.06102508  0.35161200     0.16000
H108        H  0.28867200  0.95103365  0.35163774     0.16000
H109        H  0.19499104  0.20956897  0.22347723     0.14200
H110        H  0.19439543  0.20954050  0.27879240     0.14200
H111        H  0.19494686  0.80271273  0.22353008     0.14200
H112        H  0.19434090  0.80266162  0.27884142     0.14200
H113        H  0.21242443  0.00623187  0.22624131     0.27500
H114        H  0.21174665  0.00619016  0.27624327     0.27500
N115        N  0.75196775  0.00652591  0.20820952    -0.35300
N116        N  0.74774946  0.09285242  0.25158819    -0.55800
N117        N  0.75262475  0.00645633  0.29500378    -0.35300
N118        N  0.74765000  0.92015579  0.25162025    -0.55800
C119        C  0.73771839  0.05224288  0.19297891     0.28300
C120        C  0.73763221  0.96083358  0.19300494     0.28300
C121        C  0.73860739  0.05217579  0.31025999     0.28300
C122        C  0.73855826  0.96073381  0.31026882     0.28300
C123        C  0.75943417  0.12443129  0.22869388     0.36900
C124        C  0.75976346  0.12440497  0.27444296     0.36900
C125        C  0.75938464  0.88862677  0.22873447     0.36900
C126        C  0.75972614  0.88857733  0.27447062     0.36900
C127        C  0.71359113  0.03531396  0.16799972    -0.20500
C128        C  0.71353528  0.97780721  0.16801650    -0.20500
C129        C  0.71490901  0.03520692  0.33532290    -0.20500
C130        C  0.71487897  0.97769975  0.33532833    -0.20500
C131        C  0.77962236  0.17586233  0.23709632    -0.21600
C132        C  0.77983512  0.17584476  0.26596911    -0.21600
C133        C  0.77969197  0.83722074  0.23713519    -0.21600
C134        C  0.77990850  0.83718925  0.26600523    -0.21600
C135        C  0.74856819  0.10869562  0.20041704    -0.16900
C136        C  0.74841653  0.90436142  0.20046911    -0.16900
C137        C  0.74915133  0.90423942  0.30276975    -0.16900
C138        C  0.74925527  0.10866745  0.30275457    -0.16900
H139        H  0.69745375  0.06159799  0.15144891     0.16000
H140        H  0.69735511  0.95155290  0.15147910     0.16000
H141        H  0.69899057  0.06145569  0.35191227     0.16000
H142        H  0.69893791  0.95144997  0.35192236     0.16000
H143        H  0.79293065  0.20994926  0.22385629     0.14200
H144        H  0.79334122  0.20991974  0.27916224     0.14200
H145        H  0.79305991  0.80317870  0.22389454     0.14200
H146        H  0.79347591  0.80311680  0.27920345     0.14200
H147        H  0.77541259  0.00650367  0.22657780     0.27500
H148        H  0.77572685  0.00645782  0.27654920     0.27500
C149        C  0.21259637  0.78793249  0.39300596     0.31400
C150        C  0.27587430  0.72516856  0.35976027     0.31400
C151        C  0.18665149  0.73113438  0.38514431    -0.04800
C152        C  0.22657842  0.81447821  0.36448480    -0.05600
C153        C  0.26975512  0.77236213  0.40530373    -0.05500
C154        C  0.21937019  0.69861085  0.36775599    -0.04900
C155        C  0.25952144  0.78203559  0.34739434    -0.05600
C156        C  0.30247618  0.73970182  0.38821604    -0.05500
C157        C  0.18975352  0.64993417  0.36247765    -0.30900
N158        N  0.13988073  0.65176039  0.37634230     0.15600
C159        C  0.13802537  0.70146083  0.39033643    -0.30900
H160        H  0.10376124  0.71514045  0.40336729     0.17500
C161        C  0.26780682  0.81139002  0.32272477    -0.29900
N162        N  0.24009321  0.86097937  0.32420634     0.14300
C163        C  0.21473445  0.86305387  0.34981982    -0.29900
C164        C  0.35125294  0.72843404  0.40286016    -0.30200
N165        N  0.34898898  0.75382093  0.42846636     0.14800
H166        H  0.38559136  0.70309385  0.39552647     0.17500
C167        C  0.29910859  0.78102994  0.42995329    -0.30200
H168        H  0.28503818  0.80523393  0.44771996     0.17500
H169        H  0.18915166  0.89718868  0.35717364     0.17500
H170        H  0.20340355  0.61583916  0.34933163     0.17500
H171        H  0.29220908  0.79757459  0.30497550     0.17500
N172        N  0.08077141  0.50608375  0.37456191    -0.35300
N173        N  0.99417960  0.59302064  0.37723545    -0.55800
N174        N  0.90752069  0.50628713  0.37493552    -0.35300
N175        N  0.99411373  0.41934014  0.37735576    -0.55800
C176        C  0.11164500  0.55193817  0.38104139     0.28300
C177        C  0.11159390  0.46018738  0.38107394     0.28300
C178        C  0.87675361  0.55219284  0.38144344     0.28300
C179        C  0.87673219  0.46043889  0.38151522     0.28300
C180        C  0.03977486  0.62467586  0.37135485     0.36900
C181        C  0.94854799  0.62479205  0.37151106     0.36900
C182        C  0.03963383  0.38759170  0.37145238     0.36900
C183        C  0.94842311  0.38769814  0.37162444     0.36900
C184        C  0.16237189  0.53481340  0.39200642    -0.20500
C185        C  0.16234097  0.47724177  0.39202485    -0.20500
C186        C  0.82613400  0.53514780  0.39250933    -0.20500
C187        C  0.82612283  0.47757019  0.39255646    -0.20500
C188        C  0.02285142  0.67637163  0.36160294    -0.21600
C189        C  0.96540295  0.67644439  0.36170204    -0.21600
C190        C  0.02261074  0.33596979  0.36168344    -0.21600
C191        C  0.96516512  0.33603654  0.36179177    -0.21600
C192        C  0.09641366  0.60872936  0.37608002    -0.16900
C193        C  0.09629361  0.40341809  0.37614780    -0.16900
C194        C  0.89187477  0.40365438  0.37651276    -0.16900
C195        C  0.89195800  0.60895289  0.37639007    -0.16900
H196        H  0.19601469  0.56101591  0.39938808     0.16000
H197        H  0.19595329  0.45099159  0.39942170     0.16000
H198        H  0.79257554  0.56141043  0.39991259     0.16000
H199        H  0.79255012  0.45136246  0.39999613     0.16000
H200        H  0.04906300  0.71052502  0.35488467     0.14200
H201        H  0.93914489  0.71065952  0.35507421     0.14200
H202        H  0.04875340  0.30178569  0.35494217     0.14200
H203        H  0.93883244  0.30191147  0.35514830     0.14200
H204        H  0.04314826  0.50611035  0.36369222     0.27500
H205        H  0.94499518  0.50623771  0.36397551     0.27500
C206        C  0.71238969  0.28744809  0.35998497     0.31400
C207        C  0.77547482  0.22449546  0.39329383     0.31400
C208        C  0.76890442  0.31389233  0.36806125    -0.04800
C209        C  0.68570886  0.27291405  0.38838994    -0.05600
C210        C  0.72861683  0.23058512  0.34763511    -0.05500
C211        C  0.80155279  0.28127828  0.38548539    -0.04900
C212        C  0.71833058  0.24014349  0.40551549    -0.05600
C213        C  0.76146950  0.19803054  0.36475280    -0.05500
C214        C  0.85019362  0.31091787  0.39075733    -0.30900
N215        N  0.84837245  0.36067215  0.37677905     0.15600
C216        C  0.79853253  0.36257388  0.36284973    -0.30900
H217        H  0.78492273  0.39672104  0.34969795     0.17500
C218        C  0.68890510  0.23145101  0.43011105    -0.29900
N219        N  0.63909315  0.25877351  0.42854891     0.14300
C220        C  0.63692447  0.28424064  0.40295189    -0.29900
C221        C  0.77306044  0.14939153  0.35011595    -0.30200
N222        N  0.74762822  0.15155938  0.32449404     0.14800
H223        H  0.79850782  0.11514586  0.35749849     0.17500
C224        C  0.72010991  0.20125529  0.32298694    -0.30200
H225        H  0.69567333  0.21515539  0.30523615     0.17500
H226        H  0.60265243  0.30967214  0.39557418     0.17500
H227        H  0.88444818  0.29717562  0.40381756     0.17500
H228        H  0.70288082  0.20717023  0.44789532     0.17500
N229        N  0.49410123  0.74876139  0.45806543    -0.35300
N230        N  0.58052186  0.75330623  0.00149952    -0.55800
N231        N  0.49414006  0.74853098  0.04485712    -0.35300
N232        N  0.40769394  0.75317288  0.00143009    -0.55800
C233        C  0.53982915  0.76297442  0.44285515     0.28300
C234        C  0.44836029  0.76300184  0.44282306     0.28300
C235        C  0.53985888  0.76273763  0.06012062     0.28300
C236        C  0.44837156  0.76254343  0.06008607     0.28300
C237        C  0.61207900  0.74143808  0.47863604     0.36900
C238        C  0.61212343  0.74144489  0.02438515     0.36900
C239        C  0.37616193  0.74130020  0.47852876     0.36900
C240        C  0.37617649  0.74105429  0.02427939     0.36900
C241        C  0.52285608  0.78700436  0.41785318    -0.20500
C242        C  0.46531763  0.78702929  0.41783455    -0.20500
C243        C  0.52284051  0.78653942  0.08514258    -0.20500
C244        C  0.46530116  0.78641947  0.08512057    -0.20500
C245        C  0.66353306  0.72126919  0.48709326    -0.21600
C246        C  0.66356531  0.72128525  0.01596508    -0.21600
C247        C  0.32480628  0.72087933  0.48692147    -0.21600
C248        C  0.32481679  0.72071870  0.01579545    -0.21600
C249        C  0.59632912  0.75216979  0.45033675    -0.16900
C250        C  0.39186739  0.75217637  0.45025344    -0.16900
C251        C  0.39188282  0.75166884  0.05259275    -0.16900
C252        C  0.59639477  0.75209895  0.05267426    -0.16900
H253        H  0.54912990  0.80310055  0.40130996     0.16000
H254        H  0.43903493  0.80314400  0.40127229     0.16000
H255        H  0.54908282  0.80258041  0.10172910     0.16000
H256        H  0.43900182  0.80235899  0.10168578     0.16000
H257        H  0.69760918  0.70782505  0.47389068     0.14200
H258        H  0.69766593  0.70784806  0.02919212     0.14200
H259        H  0.29078083  0.70736695  0.47367323     0.14200
H260        H  0.29079517  0.70706416  0.02898241     0.14200
H261        H  0.49411191  0.72539738  0.47645111     0.27500
H262        H  0.49417764  0.72530490  0.02643901     0.27500
N263        N  0.49400615  0.26395216  0.45798173    -0.35300
N264        N  0.58039267  0.25956000  0.00142146    -0.55800
N265        N  0.49403450  0.26459493  0.04477448    -0.35300
N266        N  0.40763247  0.25982751  0.00134815    -0.55800
C267        C  0.53973426  0.24967443  0.44279565     0.28300
C268        C  0.44828018  0.24968512  0.44275143     0.28300
C269        C  0.53975092  0.25034642  0.06003856     0.28300
C270        C  0.44827339  0.25059809  0.06001292     0.28300
C271        C  0.61192720  0.27140017  0.47854735     0.36900
C272        C  0.61196982  0.27157302  0.02428329     0.36900
C273        C  0.37606173  0.27149440  0.47842751     0.36900
C274        C  0.37606891  0.27193934  0.02417712     0.36900
C275        C  0.52278187  0.22559314  0.41781564    -0.20500
C276        C  0.46524504  0.22559494  0.41778853    -0.20500
C277        C  0.52274108  0.22655081  0.08507245    -0.20500
C278        C  0.46520515  0.22671134  0.08505722    -0.20500
C279        C  0.66333199  0.29171374  0.48696885    -0.21600
C280        C  0.66336243  0.29181347  0.01583882    -0.21600
C281        C  0.32463113  0.29178118  0.48678588    -0.21600
C282        C  0.32463801  0.29207080  0.01565923    -0.21600
C283        C  0.59621318  0.26049731  0.45027560    -0.16900
C284        C  0.39179217  0.26051916  0.45017116    -0.16900
C285        C  0.39178347  0.26142615  0.05250429    -0.16900
C286        C  0.59627791  0.26093660  0.05257477    -0.16900
H287        H  0.54906730  0.20945828  0.40129203     0.16000
H288        H  0.43896923  0.20945710  0.40123897     0.16000
H289        H  0.54898518  0.21047326  0.10165884     0.16000
H290        H  0.43891067  0.21076189  0.10162731     0.16000
H291        H  0.69737541  0.30516222  0.47374214     0.14200
H292        H  0.69742978  0.30536217  0.02904977     0.14200
H293        H  0.29054943  0.30509973  0.47351521     0.14200
H294        H  0.29055574  0.30564722  0.02882322     0.14200
H295        H  0.49401062  0.28737468  0.47633668     0.27500
H296        H  0.49407295  0.28781457  0.02634261     0.27500
C297        C  0.71237941  0.72522224  0.35995674     0.31400
C298        C  0.77549247  0.78813705  0.39324067     0.31400
C299        C  0.76896592  0.69881229  0.36798204    -0.04800
C300        C  0.72850856  0.78215392  0.34761039    -0.05600
C301        C  0.68575812  0.73964587  0.38839637    -0.05500
C302        C  0.80164287  0.73140150  0.38538657    -0.04900
C303        C  0.76135830  0.81467547  0.36472609    -0.05600
C304        C  0.71840296  0.77239398  0.40549989    -0.05500
C305        C  0.85033323  0.70175573  0.39060685    -0.30900
N306        N  0.84849844  0.65201625  0.37663216     0.15600
C307        C  0.79861150  0.65014563  0.36274308    -0.30900
H308        H  0.78495693  0.61600819  0.34961561     0.17500
C309        C  0.77290391  0.86337085  0.35011400    -0.29900
N310        N  0.74746631  0.86128647  0.32449779     0.14300
C311        C  0.71998452  0.81157435  0.32296993    -0.29900
C312        C  0.68901642  0.78110192  0.43010494    -0.30200
N313        N  0.63919656  0.75380341  0.42858704     0.14800
H314        H  0.70301257  0.80542115  0.44785868     0.17500
C315        C  0.63698799  0.72834435  0.40299453    -0.30200
H316        H  0.60268113  0.70296636  0.39563347     0.17500
H317        H  0.69558505  0.79771501  0.30520642     0.17500
H318        H  0.88460685  0.71546404  0.40365348     0.17500
H319        H  0.79835746  0.89758484  0.35750263     0.17500
C320        C  0.77537037  0.22464078  0.10994665     0.31400
C321        C  0.71214111  0.28756909  0.14311942     0.31400
C322        C  0.80159630  0.28127867  0.11795254    -0.04800
C323        C  0.71838784  0.24059215  0.09753077    -0.05600
C324        C  0.76092911  0.19801639  0.13839757    -0.05500
C325        C  0.76884919  0.31383577  0.13530683    -0.04900
C326        C  0.68570717  0.27335531  0.11459109    -0.05600
C327        C  0.72801960  0.23056832  0.15544291    -0.05500
C328        C  0.79841379  0.36249660  0.14061217    -0.30900
N329        N  0.84825396  0.36079871  0.12671725     0.15600
C330        C  0.85026578  0.31100253  0.11280223    -0.30900
H331        H  0.88452940  0.29743122  0.09974215     0.17500
C332        C  0.63698513  0.28474405  0.09993173    -0.29900
N333        N  0.63920028  0.25930403  0.07434115     0.14300
C334        C  0.68902208  0.23196223  0.07287619    -0.29900
C335        C  0.71937910  0.20122968  0.18008121    -0.30200
N336        N  0.74686060  0.15152124  0.17863401     0.14800
H337        H  0.69499381  0.21518125  0.19780941     0.16700
C338        C  0.77237781  0.14933707  0.15306087    -0.30200
H339        H  0.79789447  0.11510847  0.14575922     0.17500
H340        H  0.70299795  0.20760072  0.05514464     0.17500
H341        H  0.78460308  0.39663214  0.15368867     0.17500
H342        H  0.60266615  0.31010638  0.10726834     0.17500
C343        C  0.27574743  0.28713619  0.35967708     0.31400
C344        C  0.21269379  0.22414394  0.39294196     0.31400
C345        C  0.21917838  0.31351883  0.36768118    -0.04800
C346        C  0.25957933  0.23023678  0.34732116    -0.05600
C347        C  0.30240117  0.27266262  0.38813016    -0.05500
C348        C  0.18655075  0.28089931  0.38508293    -0.04900
C349        C  0.22675450  0.19768926  0.36442513    -0.05600
C350        C  0.26980425  0.23987647  0.40522697    -0.05500
C351        C  0.13792174  0.31056389  0.39032935    -0.30900
N352        N  0.13971837  0.36032734  0.37635565     0.15600
C353        C  0.18953314  0.36220142  0.36244891    -0.30900
H354        H  0.20314793  0.39636215  0.34932322     0.17500
C355        C  0.21504389  0.14909319  0.34978275    -0.29900
N356        N  0.24036897  0.15124554  0.32416390     0.14300
C357        C  0.26793286  0.20091419  0.32265883    -0.29900
C358        C  0.29917282  0.23132512  0.42988446    -0.30200
N359        N  0.34892961  0.25873572  0.42838972     0.14800
H360        H  0.28519311  0.20707912  0.44766473     0.17500
C361        C  0.35111160  0.28413391  0.40277517    -0.30200
H362        H  0.38534592  0.30961501  0.39543863     0.17500
H363        H  0.29226164  0.21481405  0.30489575     0.17500
H364        H  0.10372392  0.29686041  0.40340144     0.17500
H365        H  0.18954800  0.11490055  0.35715183     0.17500
C366        C  0.27632046  0.72500510  0.14318858     0.31400
C367        C  0.21296788  0.78769494  0.10991065     0.31400
C368        C  0.21954562  0.69868135  0.13544704    -0.04800
C369        C  0.26047213  0.78208084  0.15540430    -0.05600
C370        C  0.30263978  0.73904596  0.11462017    -0.05500
C371        C  0.18673807  0.73115829  0.11803477    -0.04900
C372        C  0.22749587  0.81449523  0.13828731    -0.05600
C373        C  0.26986293  0.77167907  0.09751219    -0.05500
C374        C  0.13797729  0.70152990  0.11297711    -0.30900
N375        N  0.13997392  0.65183168  0.12699187     0.15600
C376        C  0.18989689  0.65011329  0.14087112    -0.30900
H377        H  0.20371779  0.61601432  0.15399884     0.17500
C378        C  0.21586892  0.86318198  0.15285494    -0.29900
N379        N  0.24135203  0.86115823  0.17845597     0.14300
C380        C  0.26898271  0.81153353  0.18001556    -0.29900
C381        C  0.29910501  0.78030633  0.07284806    -0.30200
N382        N  0.34899126  0.75309559  0.07434305     0.14800
H383        H  0.28502786  0.80464103  0.05510228     0.17500
C384        C  0.35135262  0.72773777  0.09997226    -0.30200
H385        H  0.38578901  0.70253877  0.10735669     0.17500
H386        H  0.29330767  0.79768770  0.19781547     0.17500
H387        H  0.10367469  0.71507939  0.09989775     0.17500
H388        H  0.19019693  0.89727320  0.14548668     0.17500
N389        N  0.05741474  0.90379412  0.03369131    -0.04800
N390        N  0.09928211  0.86919489  0.03694412    -0.56900
N391        N  0.93084485  0.94258611  0.05340220    -0.04500
N392        N  0.88882655  0.93525842  0.07064929    -0.59000
N393        N  0.93073275  0.90427753  0.03384692    -0.04000
N394        N  0.88867444  0.86996542  0.03719348    -0.56900
N395        N  0.05780065  0.94210661  0.05324264    -0.03700
N396        N  0.09998329  0.93451607  0.07038972    -0.59400
C397        C  0.12556433  0.88931193  0.05969148     0.97400
C398        C  0.86280353  0.89022379  0.06000750     0.97200
N399        N  0.93152740  0.10876484  0.03377111    -0.05000
N400        N  0.88976304  0.14345672  0.03711430    -0.57500
N401        N  0.05834381  0.06999180  0.05318907    -0.03100
N402        N  0.10048401  0.07750902  0.07037375    -0.58700
N403        N  0.05822900  0.10818681  0.03356426    -0.05000
N404        N  0.10024777  0.14259115  0.03678815    -0.57700
N405        N  0.93137741  0.07050309  0.05336792    -0.02700
N406        N  0.88946721  0.07820439  0.07063591    -0.58800
Mn407      Mn  0.99460222  0.00628779  0.05464982     1.18400
C408        C  0.86377149  0.12340498  0.05995146     0.99500
C409        C  0.12632906  0.12254258  0.05961948     1.00200
N410        N  0.93034441  0.90411737  0.46991064    -0.05000
N411        N  0.88843800  0.86960653  0.46655168    -0.61300
N412        N  0.05719250  0.94189061  0.45016780    -0.03800
N413        N  0.09891961  0.93411202  0.43280265    -0.62000
N414        N  0.05703816  0.90352926  0.46971608    -0.04500
N415        N  0.09862285  0.86866581  0.46623015    -0.61600
N416        N  0.93025739  0.94242379  0.45034004    -0.03400
N417        N  0.88824657  0.93492326  0.43307783    -0.62300
Mn418      Mn  0.99388267  0.90154844  0.50180623     1.10700
C419        C  0.86243870  0.88976939  0.44371242     1.00700
C420        C  0.12451286  0.88875196  0.44336497     1.00800
N421        N  0.05783083  0.10817603  0.46965414    -0.04500
N422        N  0.09965563  0.14273274  0.46617993    -0.59900
N423        N  0.93078915  0.07028616  0.45027027    -0.03800
N424        N  0.88876954  0.07796997  0.43303225    -0.56600
N425        N  0.93114225  0.10863183  0.46980358    -0.05200
N426        N  0.88941269  0.14337540  0.46644204    -0.59500
N427        N  0.05772184  0.06984652  0.45011114    -0.04100
N428        N  0.09949997  0.07739493  0.43274173    -0.56600
Mn429      Mn  0.99468512  0.11079029  0.50170278     1.20200
Mn430      Mn  0.99399381  0.00610987  0.44890810     1.10100
Cl431      Cl  0.99431414  0.00617599  0.50177025    -0.84600
C432        C  0.12540003  0.12257292  0.44330388     0.97700
C433        C  0.86322833  0.12326100  0.44365783     0.97500
N434        N  0.43028069  0.44294873  0.20001424    -0.04800
N435        N  0.42277628  0.40094462  0.18278527    -0.56900
N436        N  0.39213963  0.56975508  0.21958554    -0.04500
N437        N  0.35780574  0.61183505  0.21630708    -0.59000
N438        N  0.43046031  0.56983735  0.20004040    -0.04000
N439        N  0.42314610  0.61200844  0.18287452    -0.56900
N440        N  0.39195001  0.44308083  0.21955655    -0.03700
N441        N  0.35740826  0.40120140  0.21621143    -0.59400
C442        C  0.37761236  0.37517318  0.19342492     0.97400
C443        C  0.37809239  0.63791788  0.19354599     0.97200
N444        N  0.43033770  0.56978960  0.30310855    -0.05000
N445        N  0.42280705  0.61179798  0.32033541    -0.57500
N446        N  0.39191169  0.44301439  0.28351595    -0.03100
N447        N  0.35730051  0.40118583  0.28682367    -0.58700
N448        N  0.43019427  0.44284464  0.30312101    -0.05000
N449        N  0.42255521  0.40086136  0.32037013    -0.57700
N450        N  0.39202922  0.56969986  0.28351754    -0.02700
N451        N  0.35750387  0.61160835  0.28681807    -0.58800
Mn452      Mn  0.38963319  0.50638279  0.25153906     1.18400
C453        C  0.37765711  0.63761635  0.30963802     0.99500
C454        C  0.37738160  0.37513952  0.30966086     1.00200
N455        N  0.55832209  0.56966637  0.20005203    -0.05000
N456        N  0.56576678  0.61170783  0.18282826    -0.61300
N457        N  0.59657486  0.44285257  0.21961751    -0.03800
N458        N  0.63107369  0.40093432  0.21627252    -0.62000
N459        N  0.55818745  0.44277486  0.20006708    -0.04500
N460        N  0.56559959  0.40076439  0.18283925    -0.61600
N461        N  0.59669208  0.56951483  0.21961137    -0.03400
N462        N  0.63121708  0.61140955  0.21627836    -0.62300
Mn463      Mn  0.49430633  0.50630165  0.19871328     1.10700
C464        C  0.61094437  0.63747338  0.19348399     1.00700
C465        C  0.61078541  0.37494082  0.19347453     1.00800
N466        N  0.55819839  0.44270188  0.30310726    -0.04500
N467        N  0.56563185  0.40059246  0.32030167    -0.59900
N468        N  0.59668083  0.56946506  0.28358030    -0.03800
N469        N  0.63123666  0.61133711  0.28691643    -0.56600
N470        N  0.55833945  0.56962367  0.30312122    -0.05200
N471        N  0.56585784  0.61165143  0.32033678    -0.59500
N472        N  0.59651988  0.44281644  0.28355840    -0.04100
N473        N  0.63095813  0.40082882  0.28686124    -0.56600
Mn474      Mn  0.49428186  0.50623927  0.30445348     1.20200
Mn475      Mn  0.59900903  0.50616504  0.25159859     1.10100
Cl476      Cl  0.49430916  0.50627052  0.25157785    -0.84600
C477        C  0.61074433  0.37475864  0.30964002     0.97700
C478        C  0.61103600  0.63739938  0.30969292     0.97500
C479        C  0.15724059  0.85400006  0.07674998    -0.11900
C480        C  0.18085110  0.82267962  0.09182549    -0.13500
C481        C  0.34293817  0.66971241  0.17643453    -0.11900
C482        C  0.31161508  0.69323278  0.16130493    -0.13500
C483        C  0.31090640  0.31917519  0.34161320    -0.11900
C484        C  0.34219649  0.34309630  0.32663905    -0.13500
C485        C  0.18067817  0.18901702  0.41103137    -0.11900
C486        C  0.15703324  0.15775105  0.42612989    -0.13500
C487        C  0.80757035  0.18960029  0.09191582    -0.11900
C488        C  0.83164261  0.15849025  0.07692198    -0.13500
C489        C  0.64586725  0.34316793  0.17634686    -0.11900
C490        C  0.67698368  0.31951380  0.16119485    -0.13500
C491        C  0.64611911  0.66939760  0.32674927    -0.11900
C492        C  0.67725650  0.69324497  0.34184347    -0.13500
C493        C  0.80747920  0.82321380  0.41136529    -0.11900
C494        C  0.83094833  0.85448202  0.42653111    -0.13500
C495        C  0.80754566  0.18949376  0.41143078    -0.11900
C496        C  0.83136326  0.15842044  0.42657314    -0.13500
C497        C  0.67723610  0.31937346  0.34186020    -0.11900
C498        C  0.64595000  0.34298437  0.32674287    -0.13500
C499        C  0.15638992  0.85369904  0.42625470    -0.11900
C500        C  0.18036500  0.82280163  0.41111000    -0.13500
C501        C  0.31114760  0.69329136  0.34168591    -0.11900
C502        C  0.34247215  0.66954666  0.32666367    -0.13500
C503        C  0.67704364  0.69333543  0.16133061    -0.11900
C504        C  0.64595566  0.66947659  0.17642161    -0.13500
C505        C  0.80740447  0.82363758  0.09211968    -0.11900
C506        C  0.83104283  0.85506886  0.07711529    -0.13500
C507        C  0.34251916  0.34324757  0.17634854    -0.11900
C508        C  0.31135941  0.31948016  0.16123920    -0.13500
C509        C  0.15774477  0.15803875  0.07670502    -0.11900
C510        C  0.18107724  0.18961090  0.09175262    -0.13500
C511        C  0.21303170  0.22474906  0.60983735     0.31400
C512        C  0.27620700  0.28755952  0.64312418     0.31400
C513        C  0.18661883  0.28120985  0.61797173    -0.04800
C514        C  0.22768143  0.19793191  0.63821157    -0.05600
C515        C  0.26986627  0.24098595  0.59743801    -0.05500
C516        C  0.21935016  0.31371466  0.63539082    -0.04900
C517        C  0.26056090  0.23039806  0.65533268    -0.05600
C518        C  0.30254315  0.27368928  0.61454408    -0.05500
C519        C  0.18966840  0.36225760  0.64078563    -0.30900
N520        N  0.13978955  0.36054759  0.62687659     0.15600
C521        C  0.13784666  0.31084713  0.61287516    -0.30900
H522        H  0.10360208  0.29732598  0.59975974     0.17500
C523        C  0.26910745  0.20092676  0.67995396    -0.29900
N524        N  0.24159683  0.15124154  0.67839597     0.14300
C525        C  0.21615467  0.14920356  0.65278561    -0.29900
C526        C  0.35118315  0.28522347  0.59987739    -0.30200
N527        N  0.34888373  0.25991375  0.57424651     0.14800
H528        H  0.38553960  0.31051351  0.60725593     0.17500
C529        C  0.29910697  0.23252591  0.57276463    -0.30200
H530        H  0.28511259  0.20816374  0.55502527     0.17500
H531        H  0.19053648  0.11509039  0.64542181     0.17500
H532        H  0.20346341  0.39636415  0.65389602     0.17500
H533        H  0.29334655  0.21481844  0.69776610     0.17500
N534        N  0.99405293  0.41978310  0.62518725    -0.35300
N535        N  0.90714500  0.50645613  0.62779969    -0.55800
N536        N  0.99414820  0.59290156  0.62536585    -0.35300
N537        N  0.08104264  0.50622705  0.62789144    -0.55800
C538        C  0.94812022  0.38898422  0.63162761     0.28300
C539        C  0.03993179  0.38887916  0.63167231     0.28300
C540        C  0.94827749  0.62379669  0.63182300     0.28300
C541        C  0.04010124  0.62365368  0.63186556     0.28300
C542        C  0.87541211  0.46090480  0.62192211     0.36900
C543        C  0.87545003  0.55210807  0.62201873     0.36900
C544        C  0.11271725  0.46064006  0.62203338     0.36900
C545        C  0.11278104  0.55180576  0.62210726     0.36900
C546        C  0.96518364  0.33823618  0.64256110    -0.20500
C547        C  0.02278716  0.33816871  0.64258499    -0.20500
C548        C  0.96545818  0.67444875  0.64278741    -0.20500
C549        C  0.02306522  0.67436149  0.64281029    -0.20500
C550        C  0.82373252  0.47787583  0.61213216    -0.21600
C551        C  0.82375519  0.53529883  0.61219442    -0.21600
C552        C  0.16439273  0.47751203  0.61225564    -0.21600
C553        C  0.16443254  0.53492264  0.61230142    -0.21600
C554        C  0.89131403  0.40426081  0.62661734    -0.16900
C555        C  0.09676005  0.40404621  0.62672885    -0.16900
C556        C  0.09690270  0.60839217  0.62688041    -0.16900
C557        C  0.89143033  0.60869134  0.62680034    -0.16900
H558        H  0.93891697  0.30462554  0.64990037     0.16000
H559        H  0.04900257  0.30450094  0.64994026     0.16000
H560        H  0.93926658  0.70810197  0.65013879     0.16000
H561        H  0.04935808  0.70793751  0.65017621     0.16000
H562        H  0.78954414  0.45171557  0.60538577     0.14200
H563        H  0.78959150  0.56156601  0.60549916     0.14200
H564        H  0.19853071  0.45129602  0.60552173     0.14200
H565        H  0.19860793  0.56113211  0.60560833     0.14200
H566        H  0.99408012  0.45739373  0.61433323     0.27500
H567        H  0.99410520  0.55534710  0.61448257     0.27500
C568        C  0.77536863  0.78839875  0.61012478     0.31400
C569        C  0.71218486  0.72537194  0.64328090     0.31400
C570        C  0.80171423  0.73179277  0.61816873    -0.04800
C571        C  0.76081876  0.81498394  0.63854420    -0.05600
C572        C  0.71844287  0.77237644  0.59768193    -0.05500
C573        C  0.76896281  0.69917858  0.63550779    -0.04900
C574        C  0.72794607  0.78239877  0.65559679    -0.05600
C575        C  0.68577853  0.73956458  0.61473047    -0.05500
C576        C  0.79855109  0.65050813  0.64082012    -0.30900
N577        N  0.84842493  0.65224389  0.62695388     0.15600
C578        C  0.85043593  0.70209270  0.61305430    -0.30900
H579        H  0.88470423  0.71568977  0.60000093     0.17500
C580        C  0.71925288  0.81177332  0.68021148    -0.29900
N581        N  0.74665620  0.86152440  0.67871896     0.14300
C582        C  0.77218089  0.86369780  0.65315467    -0.29900
C583        C  0.63707075  0.72819772  0.60005259    -0.30200
N584        N  0.63929292  0.75369143  0.57446034     0.14800
H585        H  0.60274958  0.70282844  0.60738254     0.17500
C586        C  0.68909543  0.78105795  0.57301871    -0.30200
H587        H  0.70306710  0.80548557  0.55529925     0.17500
H588        H  0.79766951  0.89793330  0.64582912     0.17500
H589        H  0.78470609  0.61631419  0.65386239     0.17500
H590        H  0.69490608  0.79781235  0.69795630     0.17500
N591        N  0.23588056  0.00619949  0.70789974    -0.35300
N592        N  0.24016137  0.09249290  0.75129529    -0.55800
N593        N  0.23488392  0.00613815  0.79471018    -0.35300
N594        N  0.23979991  0.91985545  0.75133186    -0.55800
C595        C  0.25028174  0.05188616  0.69269790     0.28300
C596        C  0.25015686  0.96047652  0.69271623     0.28300
C597        C  0.24907305  0.05182455  0.80996160     0.28300
C598        C  0.24890947  0.96039509  0.80998344     0.28300
C599        C  0.22854439  0.12407310  0.72838531     0.36900
C600        C  0.22805383  0.12404806  0.77412264     0.36900
C601        C  0.22826774  0.88828581  0.72842578     0.36900
C602        C  0.22776249  0.88824448  0.77416302     0.36900
C603        C  0.27440002  0.03490282  0.66774754    -0.20500
C604        C  0.27431971  0.97739801  0.66775865    -0.20500
C605        C  0.27280774  0.03481155  0.83503089    -0.20500
C606        C  0.27270019  0.97731176  0.83504545    -0.20500
C607        C  0.20826595  0.17548865  0.73674619    -0.21600
C608        C  0.20795251  0.17547170  0.76561804    -0.21600
C609        C  0.20810981  0.83681551  0.73679340    -0.21600
C610        C  0.20778972  0.83678985  0.76566441    -0.21600
C611        C  0.23960234  0.10836879  0.70014136    -0.16900
C612        C  0.23935831  0.90401734  0.70018166    -0.16900
C613        C  0.23828990  0.90391763  0.80247529    -0.16900
C614        C  0.23857959  0.10833722  0.80243779    -0.16900
H615        H  0.29064093  0.06114607  0.65122396     0.16000
H616        H  0.29048951  0.95111201  0.65124499     0.16000
H617        H  0.28887116  0.06102502  0.85161207     0.16000
H618        H  0.28867173  0.95103358  0.85163783     0.16000
H619        H  0.19499095  0.20956889  0.72347721     0.14200
H620        H  0.19439559  0.20954059  0.77879234     0.14200
H621        H  0.19494700  0.80271267  0.72353013     0.14200
H622        H  0.19434067  0.80266180  0.77884151     0.14200
H623        H  0.21242458  0.00623184  0.72624133     0.27500
H624        H  0.21174684  0.00619019  0.77624328     0.27500
N625        N  0.75196773  0.00652592  0.70820957    -0.35300
N626        N  0.74774948  0.09285245  0.75158818    -0.55800
N627        N  0.75262502  0.00645633  0.79500377    -0.35300
N628        N  0.74765019  0.92015581  0.75162031    -0.55800
C629        C  0.73771849  0.05224286  0.69297889     0.28300
C630        C  0.73763227  0.96083356  0.69300496     0.28300
C631        C  0.73860758  0.05217579  0.81026000     0.28300
C632        C  0.73855839  0.96073383  0.81026883     0.28300
C633        C  0.75943414  0.12443130  0.72869386     0.36900
C634        C  0.75976332  0.12440507  0.77444295     0.36900
C635        C  0.75938472  0.88862676  0.72873453     0.36900
C636        C  0.75972634  0.88857736  0.77447067     0.36900
C637        C  0.71359129  0.03531393  0.66799968    -0.20500
C638        C  0.71353546  0.97780718  0.66801648    -0.20500
C639        C  0.71490901  0.03520693  0.83532288    -0.20500
C640        C  0.71487883  0.97769975  0.83532828    -0.20500
C641        C  0.77962236  0.17586229  0.73709630    -0.21600
C642        C  0.77983497  0.17584485  0.76596907    -0.21600
C643        C  0.77969192  0.83722066  0.73713523    -0.21600
C644        C  0.77990856  0.83718927  0.76600527    -0.21600
C645        C  0.74856820  0.10869562  0.70041702    -0.16900
C646        C  0.74841657  0.90436141  0.70046916    -0.16900
C647        C  0.74915154  0.90423946  0.80276978    -0.16900
C648        C  0.74925532  0.10866750  0.80275457    -0.16900
H649        H  0.69745383  0.06159793  0.65144889     0.16000
H650        H  0.69735535  0.95155285  0.65147908     0.16000
H651        H  0.69899045  0.06145570  0.85191219     0.16000
H652        H  0.69893751  0.95144996  0.85192224     0.16000
H653        H  0.79293089  0.20994914  0.72385621     0.14200
H654        H  0.79334117  0.20991986  0.77916219     0.14200
H655        H  0.79305969  0.80317860  0.72389460     0.14200
H656        H  0.79347599  0.80311674  0.77920353     0.14200
H657        H  0.77541243  0.00650366  0.72657787     0.27500
H658        H  0.77572711  0.00645781  0.77654922     0.27500
C659        C  0.21259644  0.78793252  0.89300594     0.31400
C660        C  0.27587430  0.72516853  0.85976026     0.31400
C661        C  0.18665151  0.73113440  0.88514429    -0.04800
C662        C  0.22657847  0.81447820  0.86448477    -0.05600
C663        C  0.26975518  0.77236217  0.90530372    -0.05500
C664        C  0.21937019  0.69861087  0.86775597    -0.04900
C665        C  0.25952147  0.78203556  0.84739432    -0.05600
C666        C  0.30247624  0.73970181  0.88821603    -0.05500
C667        C  0.18975347  0.64993424  0.86247761    -0.30900
N668        N  0.13988072  0.65176042  0.87634222     0.15600
C669        C  0.13802543  0.70146079  0.89033638    -0.30900
H670        H  0.10376125  0.71514029  0.90336734     0.17500
C671        C  0.26780682  0.81139000  0.82272478    -0.29900
N672        N  0.24009328  0.86097933  0.82420630     0.14300
C673        C  0.21473445  0.86305378  0.84981973    -0.29900
C674        C  0.35125294  0.72843402  0.90286018    -0.30200
N675        N  0.34898897  0.75382087  0.92846641     0.14800
H676        H  0.38559138  0.70309382  0.89552649     0.17500
C677        C  0.29910858  0.78102994  0.92995331    -0.30200
H678        H  0.28503812  0.80523389  0.94771996     0.17500
H679        H  0.18915152  0.89718861  0.85717350     0.17500
H680        H  0.20340355  0.61583914  0.84933161     0.17500
H681        H  0.29220919  0.79757449  0.80497547     0.17500
N682        N  0.08077160  0.50608375  0.87456181    -0.35300
N683        N  0.99417962  0.59302062  0.87723544    -0.55800
N684        N  0.90752082  0.50628716  0.87493543    -0.35300
N685        N  0.99411377  0.41934019  0.87735570    -0.55800
C686        C  0.11164513  0.55193816  0.88104127     0.28300
C687        C  0.11159397  0.46018736  0.88107390     0.28300
C688        C  0.87675364  0.55219288  0.88144340     0.28300
C689        C  0.87673232  0.46043894  0.88151524     0.28300
C690        C  0.03977487  0.62467583  0.87135482     0.36900
C691        C  0.94854802  0.62479202  0.87151104     0.36900
C692        C  0.03963385  0.38759164  0.87145240     0.36900
C693        C  0.94842314  0.38769815  0.87162447     0.36900
C694        C  0.16237199  0.53481336  0.89200630    -0.20500
C695        C  0.16234099  0.47724175  0.89202483    -0.20500
C696        C  0.82613410  0.53514782  0.89250937    -0.20500
C697        C  0.82612300  0.47757017  0.89255653    -0.20500
C698        C  0.02285142  0.67637165  0.86160297    -0.21600
C699        C  0.96540294  0.67644441  0.86170207    -0.21600
C700        C  0.02261070  0.33596966  0.86168350    -0.21600
C701        C  0.96516505  0.33603652  0.86179182    -0.21600
C702        C  0.09641370  0.60872936  0.87607998    -0.16900
C703        C  0.09629360  0.40341804  0.87614784    -0.16900
C704        C  0.89187482  0.40365442  0.87651278    -0.16900
C705        C  0.89195804  0.60895291  0.87639007    -0.16900
H706        H  0.19601486  0.56101587  0.89938800     0.16000
H707        H  0.19595323  0.45099155  0.89942179     0.16000
H708        H  0.79257573  0.56141043  0.89991265     0.16000
H709        H  0.79255042  0.45136242  0.89999619     0.16000
H710        H  0.04906298  0.71052508  0.85488477     0.14200
H711        H  0.93914486  0.71065955  0.85507432     0.14200
H712        H  0.04875324  0.30178556  0.85494224     0.14200
H713        H  0.93883231  0.30191155  0.85514835     0.14200
H714        H  0.04314834  0.50611036  0.86369215     0.27500
H715        H  0.94499523  0.50623779  0.86397540     0.27500
C716        C  0.71238969  0.28744807  0.85998496     0.31400
C717        C  0.77547482  0.22449547  0.89329384     0.31400
C718        C  0.76890448  0.31389225  0.86806115    -0.04800
C719        C  0.68570893  0.27291409  0.88838997    -0.05600
C720        C  0.72861672  0.23058507  0.84763512    -0.05500
C721        C  0.80155278  0.28127826  0.88548532    -0.04900
C722        C  0.71833066  0.24014354  0.90551552    -0.05600
C723        C  0.76146934  0.19803045  0.86475284    -0.05500
C724        C  0.85019348  0.31091796  0.89075727    -0.30900
N725        N  0.84837243  0.36067221  0.87677900     0.15600
C726        C  0.79853254  0.36257385  0.86284966    -0.30900
H727        H  0.78492263  0.39672109  0.84969792     0.17500
C728        C  0.68890523  0.23145104  0.93011110    -0.29900
N729        N  0.63909326  0.25877352  0.92854894     0.14300
C730        C  0.63692455  0.28424067  0.90295191    -0.29900
C731        C  0.77306030  0.14939147  0.85011599    -0.30200
N732        N  0.74762811  0.15155937  0.82449406     0.14800
H733        H  0.79850773  0.11514585  0.85749850     0.17500
C734        C  0.72010982  0.20125533  0.82298693    -0.30200
H735        H  0.69567341  0.21515552  0.80523613     0.17500
H736        H  0.60265258  0.30967210  0.89557420     0.17500
H737        H  0.88444802  0.29717575  0.90381761     0.17500
H738        H  0.70288096  0.20717025  0.94789536     0.17500
N739        N  0.49410115  0.74876130  0.95806550    -0.35300
N740        N  0.58052189  0.75330619  0.50149953    -0.55800
N741        N  0.49414006  0.74853099  0.54485718    -0.35300
N742        N  0.40769387  0.75317293  0.50143011    -0.55800
C743        C  0.53982908  0.76297444  0.94285516     0.28300
C744        C  0.44836022  0.76300179  0.94282308     0.28300
C745        C  0.53985889  0.76273761  0.56012067     0.28300
C746        C  0.44837155  0.76254345  0.56008609     0.28300
C747        C  0.61207895  0.74143804  0.97863602     0.36900
C748        C  0.61212344  0.74144487  0.52438517     0.36900
C749        C  0.37616196  0.74130016  0.97852877     0.36900
C750        C  0.37617642  0.74105429  0.52427941     0.36900
C751        C  0.52285593  0.78700439  0.91785320    -0.20500
C752        C  0.46531746  0.78702929  0.91783458    -0.20500
C753        C  0.52284049  0.78653939  0.58514263    -0.20500
C754        C  0.46530114  0.78641944  0.58512059    -0.20500
C755        C  0.66353305  0.72126914  0.98709321    -0.21600
C756        C  0.66356532  0.72128521  0.51596511    -0.21600
C757        C  0.32480634  0.72087939  0.98692150    -0.21600
C758        C  0.32481673  0.72071862  0.51579544    -0.21600
C759        C  0.59632904  0.75216977  0.95033675    -0.16900
C760        C  0.39186734  0.75217632  0.95025346    -0.16900
C761        C  0.39188277  0.75166881  0.55259278    -0.16900
C762        C  0.59639480  0.75209894  0.55267428    -0.16900
H763        H  0.54912971  0.80310059  0.90130997     0.16000
H764        H  0.43903474  0.80314403  0.90127235     0.16000
H765        H  0.54908274  0.80258037  0.60172918     0.16000
H766        H  0.43900175  0.80235893  0.60168580     0.16000
H767        H  0.69760905  0.70782504  0.97389064     0.14200
H768        H  0.69766589  0.70784793  0.52919214     0.14200
H769        H  0.29078078  0.70736701  0.97367325     0.14200
H770        H  0.29079512  0.70706403  0.52898240     0.14200
H771        H  0.49411185  0.72539730  0.97645113     0.27500
H772        H  0.49417768  0.72530490  0.52643906     0.27500
N773        N  0.49400623  0.26395211  0.95798166    -0.35300
N774        N  0.58039263  0.25956003  0.50142145    -0.55800
N775        N  0.49403452  0.26459495  0.54477454    -0.35300
N776        N  0.40763246  0.25982754  0.50134815    -0.55800
C777        C  0.53973436  0.24967444  0.94279565     0.28300
C778        C  0.44828024  0.24968510  0.94275145     0.28300
C779        C  0.53975094  0.25034664  0.56003858     0.28300
C780        C  0.44827340  0.25059803  0.56001291     0.28300
C781        C  0.61192725  0.27140013  0.97854737     0.36900
C782        C  0.61196986  0.27157298  0.52428328     0.36900
C783        C  0.37606173  0.27149442  0.97842751     0.36900
C784        C  0.37606891  0.27193935  0.52417712     0.36900
C785        C  0.52278189  0.22559320  0.91781567    -0.20500
C786        C  0.46524509  0.22559491  0.91778854    -0.20500
C787        C  0.52274111  0.22655093  0.58507243    -0.20500
C788        C  0.46520515  0.22671123  0.58505724    -0.20500
C789        C  0.66333196  0.29171370  0.98696892    -0.21600
C790        C  0.66336251  0.29181343  0.51583878    -0.21600
C791        C  0.32463110  0.29178115  0.98678588    -0.21600
C792        C  0.32463801  0.29207076  0.51565921    -0.21600
C793        C  0.59621329  0.26049728  0.95027561    -0.16900
C794        C  0.39179219  0.26051913  0.95017118    -0.16900
C795        C  0.39178343  0.26142609  0.55250428    -0.16900
C796        C  0.59627797  0.26093668  0.55257476    -0.16900
H797        H  0.54906743  0.20945831  0.90129199     0.16000
H798        H  0.43896929  0.20945701  0.90123899     0.16000
H799        H  0.54898528  0.21047327  0.60165883     0.16000
H800        H  0.43891078  0.21076174  0.60162725     0.16000
H801        H  0.69737555  0.30516225  0.97374219     0.14200
H802        H  0.69742987  0.30536205  0.52904968     0.14200
H803        H  0.29054937  0.30509965  0.97351521     0.14200
H804        H  0.29055569  0.30564711  0.52882321     0.14200
H805        H  0.49401072  0.28737469  0.97633667     0.27500
H806        H  0.49407290  0.28781461  0.52634261     0.27500
C807        C  0.71237946  0.72522223  0.85995671     0.31400
C808        C  0.77549244  0.78813709  0.89324065     0.31400
C809        C  0.76896597  0.69881234  0.86798201    -0.04800
C810        C  0.72850857  0.78215393  0.84761033    -0.05600
C811        C  0.68575811  0.73964586  0.88839635    -0.05500
C812        C  0.80164289  0.73140156  0.88538655    -0.04900
C813        C  0.76135827  0.81467546  0.86472606    -0.05600
C814        C  0.71840289  0.77239405  0.90549987    -0.05500
C815        C  0.85033335  0.70175583  0.89060688    -0.30900
N816        N  0.84849850  0.65201632  0.87663218     0.15600
C817        C  0.79861162  0.65014573  0.86274306    -0.30900
H818        H  0.78495709  0.61600826  0.84961553     0.17500
C819        C  0.77290398  0.86337083  0.85011402    -0.29900
N820        N  0.74746641  0.86128656  0.82449781     0.14300
C821        C  0.71998448  0.81157452  0.82296992    -0.29900
C822        C  0.68901638  0.78110203  0.93010496    -0.30200
N823        N  0.63919653  0.75380339  0.92858704     0.14800
H824        H  0.70301244  0.80542124  0.94785864     0.17500
C825        C  0.63698799  0.72834424  0.90299454    -0.30200
H826        H  0.60268115  0.70296619  0.89563353     0.17500
H827        H  0.69558484  0.79771545  0.80520637     0.17500
H828        H  0.88460681  0.71546411  0.90365347     0.17500
H829        H  0.79835759  0.89758475  0.85750269     0.17500
C830        C  0.77537035  0.22464076  0.60994661     0.31400
C831        C  0.71214113  0.28756911  0.64311940     0.31400
C832        C  0.80159628  0.28127867  0.61795251    -0.04800
C833        C  0.71838785  0.24059212  0.59753075    -0.05600
C834        C  0.76092907  0.19801637  0.63839754    -0.05500
C835        C  0.76884917  0.31383575  0.63530682    -0.04900
C836        C  0.68570720  0.27335529  0.61459110    -0.05600
C837        C  0.72801959  0.23056834  0.65544288    -0.05500
C838        C  0.79841382  0.36249654  0.64061218    -0.30900
N839        N  0.84825397  0.36079867  0.62671728     0.15600
C840        C  0.85026570  0.31100260  0.61280218    -0.30900
H841        H  0.88452925  0.29743136  0.59974202     0.17500
C842        C  0.63698520  0.28474405  0.59993172    -0.29900
N843        N  0.63920037  0.25930408  0.57434113     0.14300
C844        C  0.68902211  0.23196216  0.57287616    -0.29900
C845        C  0.71937895  0.20122965  0.68008113    -0.30200
N846        N  0.74686042  0.15152118  0.67863396     0.14800
H847        H  0.69499363  0.21518132  0.69780935     0.16700
C848        C  0.77237768  0.14933702  0.65306083    -0.30200
H849        H  0.79789440  0.11510845  0.64575920     0.17500
H850        H  0.70299789  0.20760060  0.55514466     0.17500
H851        H  0.78460312  0.39663206  0.65368873     0.17500
H852        H  0.60266624  0.31010644  0.60726832     0.17500
C853        C  0.27574735  0.28713618  0.85967704     0.31400
C854        C  0.21269383  0.22414393  0.89294197     0.31400
C855        C  0.21917834  0.31351884  0.86768116    -0.04800
C856        C  0.25957921  0.23023679  0.84732113    -0.05600
C857        C  0.30240121  0.27266260  0.88813014    -0.05500
C858        C  0.18655083  0.28089932  0.88508297    -0.04900
C859        C  0.22675447  0.19768924  0.86442513    -0.05600
C860        C  0.26980432  0.23987642  0.90522696    -0.05500
C861        C  0.13792178  0.31056384  0.89032945    -0.30900
N862        N  0.13971836  0.36032728  0.87635571     0.15600
C863        C  0.18953306  0.36220143  0.86244889    -0.30900
H864        H  0.20314768  0.39636212  0.84932319     0.17500
C865        C  0.21504384  0.14909319  0.84978274    -0.29900
N866        N  0.24036899  0.15124552  0.82416390     0.14300
C867        C  0.26793278  0.20091421  0.82265880    -0.29900
C868        C  0.29917281  0.23132515  0.92988447    -0.30200
N869        N  0.34892961  0.25873572  0.92838973     0.14800
H870        H  0.28519301  0.20707924  0.94766477     0.17500
C871        C  0.35111165  0.28413397  0.90277520    -0.30200
H872        H  0.38534591  0.30961506  0.89543872     0.17500
H873        H  0.29226153  0.21481409  0.80489573     0.17500
H874        H  0.10372410  0.29686030  0.90340154     0.17500
H875        H  0.18954788  0.11490054  0.85715180     0.17500
C876        C  0.27632049  0.72500510  0.64318862     0.31400
C877        C  0.21296799  0.78769500  0.60991069     0.31400
C878        C  0.21954571  0.69868135  0.63544704    -0.04800
C879        C  0.26047224  0.78208083  0.65540433    -0.05600
C880        C  0.30263985  0.73904595  0.61462024    -0.05500
C881        C  0.18673813  0.73115834  0.61803478    -0.04900
C882        C  0.22749604  0.81449527  0.63828733    -0.05600
C883        C  0.26986301  0.77167911  0.59751224    -0.05500
C884        C  0.13797730  0.70152993  0.61297712    -0.30900
N885        N  0.13997400  0.65183167  0.62699188     0.15600
C886        C  0.18989707  0.65011322  0.64087107    -0.30900
H887        H  0.20371808  0.61601422  0.65399872     0.17500
C888        C  0.21586910  0.86318197  0.65285497    -0.29900
N889        N  0.24135217  0.86115820  0.67845600     0.14300
C890        C  0.26898280  0.81153350  0.68001557    -0.29900
C891        C  0.29910499  0.78030638  0.57284808    -0.30200
N892        N  0.34899124  0.75309553  0.57434309     0.14800
H893        H  0.28502783  0.80464100  0.55510236     0.17500
C894        C  0.35135267  0.72773768  0.59997232    -0.30200
H895        H  0.38578897  0.70253868  0.60735672     0.17500
H896        H  0.29330778  0.79768761  0.69781555     0.17500
H897        H  0.10367478  0.71507939  0.59989781     0.17500
H898        H  0.19019708  0.89727317  0.64548672     0.17500
N899        N  0.05741465  0.90379417  0.53369132    -0.04800
N900        N  0.09928197  0.86919486  0.53694411    -0.56900
N901        N  0.93084482  0.94258613  0.55340216    -0.04500
N902        N  0.88882648  0.93525840  0.57064926    -0.59000
N903        N  0.93073272  0.90427756  0.53384690    -0.04000
N904        N  0.88867443  0.86996540  0.53719344    -0.56900
N905        N  0.05780060  0.94210659  0.55324267    -0.03700
N906        N  0.09998326  0.93451601  0.57038972    -0.59400
C907        C  0.12556428  0.88931185  0.55969146     0.97400
C908        C  0.86280353  0.89022375  0.56000747     0.97200
N909        N  0.93152743  0.10876475  0.53377108    -0.05000
N910        N  0.88976312  0.14345668  0.53711425    -0.57500
N911        N  0.05834379  0.06999174  0.55318908    -0.03100
N912        N  0.10048400  0.07750904  0.57037376    -0.58700
N913        N  0.05822892  0.10818673  0.53356427    -0.05000
N914        N  0.10024757  0.14259120  0.53678818    -0.57700
N915        N  0.93137744  0.07050309  0.55336793    -0.02700
N916        N  0.88946725  0.07820444  0.57063591    -0.58800
Mn917      Mn  0.99460215  0.00628779  0.55464984     1.18400
C918        C  0.86377159  0.12340505  0.55995143     0.99500
C919        C  0.12632895  0.12254266  0.55961950     1.00200
N920        N  0.93034447  0.90411733  0.96991061    -0.05000
N921        N  0.88843800  0.86960659  0.96655172    -0.61300
N922        N  0.05719245  0.94189055  0.95016770    -0.03800
N923        N  0.09891962  0.93411196  0.93280260    -0.62000
N924        N  0.05703803  0.90352923  0.96971600    -0.04500
N925        N  0.09862273  0.86866580  0.96623012    -0.61600
N926        N  0.93025747  0.94242374  0.95034001    -0.03400
N927        N  0.88824655  0.93492322  0.93307782    -0.62300
Mn928      Mn  0.99388271  0.90154839  0.00180622     1.10700
C929        C  0.86243865  0.88976941  0.94371245     1.00700
C930        C  0.12451282  0.88875190  0.94336496     1.00800
N931        N  0.05783077  0.10817603  0.96965412    -0.04500
N932        N  0.09965557  0.14273276  0.96617991    -0.59900
N933        N  0.93078922  0.07028611  0.95027031    -0.03800
N934        N  0.88876972  0.07796989  0.93303223    -0.56600
N935        N  0.93114232  0.10863183  0.96980360    -0.05200
N936        N  0.88941282  0.14337546  0.96644195    -0.59500
N937        N  0.05772183  0.06984654  0.95011112    -0.04100
N938        N  0.09950001  0.07739487  0.93274174    -0.56600
Mn939      Mn  0.99468518  0.11079029  0.00170281     1.20200
Mn940      Mn  0.99399385  0.00610983  0.94890811     1.10100
Cl941      Cl  0.99431434  0.00617585  0.00177029    -0.84600
C942        C  0.12540002  0.12257292  0.94330388     0.97700
C943        C  0.86322852  0.12326099  0.94365774     0.97500
N944        N  0.43028061  0.44294876  0.70001425    -0.04800
N945        N  0.42277623  0.40094467  0.68278525    -0.56900
N946        N  0.39213953  0.56975504  0.71958560    -0.04500
N947        N  0.35780556  0.61183496  0.71630714    -0.59000
N948        N  0.43046024  0.56983740  0.70004049    -0.04000
N949        N  0.42314595  0.61200844  0.68287459    -0.56900
N950        N  0.39194993  0.44308076  0.71955657    -0.03700
N951        N  0.35740822  0.40120133  0.71621141    -0.59400
C952        C  0.37761232  0.37517317  0.69342489     0.97400
C953        C  0.37809219  0.63791783  0.69354606     0.97200
N954        N  0.43033769  0.56978956  0.80310854    -0.05000
N955        N  0.42280712  0.61179804  0.82033536    -0.57500
N956        N  0.39191156  0.44301439  0.78351602    -0.03100
N957        N  0.35730044  0.40118576  0.78682372    -0.58700
N958        N  0.43019417  0.44284468  0.80312106    -0.05000
N959        N  0.42255512  0.40086143  0.82037021    -0.57700
N960        N  0.39202913  0.56969980  0.78351756    -0.02700
N961        N  0.35750388  0.61160834  0.78681806    -0.58800
Mn962      Mn  0.38963305  0.50638274  0.75153911     1.18400
C963        C  0.37765715  0.63761639  0.80963797     0.99500
C964        C  0.37738157  0.37513952  0.80966092     1.00200
N965        N  0.55832216  0.56966634  0.70005199    -0.05000
N966        N  0.56576685  0.61170787  0.68282825    -0.61300
N967        N  0.59657482  0.44285251  0.71961757    -0.03800
N968        N  0.63107364  0.40093429  0.71627256    -0.62000
N969        N  0.55818740  0.44277485  0.70006713    -0.04500
N970        N  0.56559950  0.40076434  0.68283933    -0.61600
N971        N  0.59669206  0.56951475  0.71961135    -0.03400
N972        N  0.63121704  0.61140954  0.71627841    -0.62300
Mn973      Mn  0.49430630  0.50630167  0.69871331     1.10700
C974        C  0.61094440  0.63747340  0.69348403     1.00700
C975        C  0.61078534  0.37494076  0.69347458     1.00800
N976        N  0.55819838  0.44270191  0.80310729    -0.04500
N977        N  0.56563186  0.40059253  0.82030172    -0.59900
N978        N  0.59668102  0.56946507  0.78358026    -0.03800
N979        N  0.63123682  0.61133719  0.78691641    -0.56600
N980        N  0.55833958  0.56962369  0.80312116    -0.05200
N981        N  0.56585790  0.61165149  0.82033670    -0.59500
N982        N  0.59651979  0.44281636  0.78355840    -0.04100
N983        N  0.63095799  0.40082872  0.78686122    -0.56600
Mn984      Mn  0.49428188  0.50623928  0.80445346     1.20200
Mn985      Mn  0.59900893  0.50616500  0.75159860     1.10100
Cl986      Cl  0.49430903  0.50627051  0.75157787    -0.84600
C987        C  0.61074422  0.37475858  0.80964003     0.97700
C988        C  0.61103605  0.63739947  0.80969287     0.97500
C989        C  0.15724074  0.85400002  0.57674990    -0.11900
C990        C  0.18085125  0.82267967  0.59182548    -0.13500
C991        C  0.34293796  0.66971235  0.67643462    -0.11900
C992        C  0.31161494  0.69323273  0.66130500    -0.13500
C993        C  0.31090624  0.31917514  0.84161313    -0.11900
C994        C  0.34219647  0.34309625  0.82663908    -0.13500
C995        C  0.18067817  0.18901706  0.91103138    -0.11900
C996        C  0.15703323  0.15775103  0.92612989    -0.13500
C997        C  0.80757027  0.18960027  0.59191574    -0.11900
C998        C  0.83164264  0.15849034  0.57692189    -0.13500
C999        C  0.64586716  0.34316787  0.67634686    -0.11900
C1000       C  0.67698366  0.31951387  0.66119484    -0.13500
C1001       C  0.64611911  0.66939763  0.82674931    -0.11900
C1002       C  0.67725657  0.69324489  0.84184348    -0.13500
C1003       C  0.80747914  0.82321381  0.91136530    -0.11900
C1004       C  0.83094821  0.85448201  0.92653119    -0.13500
C1005       C  0.80754572  0.18949380  0.91143077    -0.11900
C1006       C  0.83136346  0.15842039  0.92657303    -0.13500
C1007       C  0.67723611  0.31937349  0.84186020    -0.11900
C1008       C  0.64594992  0.34298435  0.82674289    -0.13500
C1009       C  0.15639005  0.85369900  0.92625475    -0.11900
C1010       C  0.18036511  0.82280170  0.91111000    -0.13500
C1011       C  0.31114759  0.69329128  0.84168589    -0.11900
C1012       C  0.34247219  0.66954672  0.82666364    -0.13500
C1013       C  0.67704355  0.69333540  0.66133057    -0.11900
C1014       C  0.64595577  0.66947657  0.67642166    -0.13500
C1015       C  0.80740456  0.82363758  0.59211973    -0.11900
C1016       C  0.83104298  0.85506879  0.57711533    -0.13500
C1017       C  0.34251919  0.34324759  0.67634845    -0.11900
C1018       C  0.31135934  0.31948024  0.66123916    -0.13500
C1019       C  0.15774492  0.15803876  0.57670497    -0.11900
C1020       C  0.18107741  0.18961082  0.59175262    -0.13500
loop_ 
_geom_bond_atom_site_label_1 
_geom_bond_atom_site_label_2 
_geom_bond_distance 
_geom_bond_site_symmetry_2 
_ccdc_geom_bond_type 
C1            C3   1.546       .  S
C1            C5   1.537       .  S
C1            C4   1.539       .  S
C1          C510   1.429       .  S
C2            C6   1.546       .  S
C2            C8   1.540       .  S
C2            C7   1.537       .  S
C2          C508   1.430       .  S
C3           C11   1.390       .  A
C3            C6   1.384       .  A
C4           C15   1.388       .  A
C4            C7   1.377       .  A
C5           C19   1.386       .  A
C5            C8   1.377       .  A
C6            C9   1.390       .  A
C7           C13   1.386       .  A
C8           C16   1.389       .  A
C9           N10   1.368       .  A
C9           H22   1.082       .  S
N10          C11   1.368       .  A
N10          C45   1.468       .  S
C11          H12   1.082       .  S
C13          N14   1.365       .  A
C13          H23   1.082       .  S
N14          C15   1.367       .  A
N14         C101   1.462       .  S
C15          H21   1.082       .  S
C16          N17   1.367       .  A
C16          H18   1.082       .  S
N17          C19   1.365       .  A
N17         C285   1.463       .  S
C19          H20   1.082       .  S
N24          C29   1.362   1_655  A
N24          C28   1.362       .  A
N24          H56   1.041       .  S
N25          C32   1.361       .  A
N25          C33   1.361       .  A
N26          C31   1.362   1_655  A
N26          C30   1.362       .  A
N26          H57   1.040       .  S
N27          C34   1.361       .  A
N27          C35   1.361       .  A
C28          C36   1.386       .  A
C28          C44   1.431       .  A
C29          C45   1.431       .  A
C29          C37   1.386       .  A
C30          C38   1.386       .  A
C30          C47   1.431       .  A
C31          C46   1.431       .  A
C31          C39   1.386       .  A
C32          C44   1.429       .  A
C32          C40   1.385       .  A
C33          C47   1.429       .  A
C33          C41   1.385       .  A
C34          C42   1.385       .  A
C34          C45   1.429       .  A
C35          C43   1.385       .  A
C35          C46   1.429       .  A
C36          C37   1.382   1_655  A
C36          H48   1.082       .  S
C37          H49   1.082       .  S
C38          C39   1.382   1_655  A
C38          H50   1.082       .  S
C39          H51   1.082       .  S
C40          C41   1.378       .  A
C40          H52   1.082       .  S
C41          H53   1.082       .  S
C42          C43   1.378       .  A
C42          H54   1.082       .  S
C43          H55   1.082       .  S
C44         N329   1.468       .  S
C46         N375   1.468       .  S
C47          N67   1.468       .  S
C58          C60   1.546       .  S
C58          C62   1.538       .  S
C58          C61   1.540       .  S
C58         C505   1.430       .  S
C59          C63   1.546       .  S
C59          C65   1.540       .  S
C59          C64   1.537       .  S
C59         C503   1.430       .  S
C60          C68   1.391       .  A
C60          C63   1.384       .  A
C61          C72   1.388       .  A
C61          C64   1.377       .  A
C62          C76   1.387       .  A
C62          C65   1.377       .  A
C63          C66   1.390       .  A
C64          C70   1.386       .  A
C65          C73   1.389       .  A
C66          N67   1.368       .  A
C66          H79   1.082       .  S
N67          C68   1.369       .  A
C68          H69   1.082       .  S
C70          N71   1.365       .  A
C70          H80   1.082       .  S
N71          C72   1.367       .  A
N71         C136   1.462       .  S
C72          H78   1.082       .  S
C73          N74   1.367       .  A
C73          H75   1.082       .  S
N74          C76   1.365       .  A
N74         C252   1.463       .  S
C76          H77   1.082       .  S
N81          C86   1.359   1_545  A
N81          C85   1.359       .  A
N81         H113   1.041       .  S
N82          C89   1.359       .  A
N82          C90   1.359       .  A
N83          C88   1.360   1_545  A
N83          C87   1.360       .  A
N83         H114   1.041       .  S
N84          C91   1.359       .  A
N84          C92   1.359       .  A
C85          C93   1.386       .  A
C85         C101   1.425       .  A
C86         C102   1.425       .  A
C86          C94   1.386       .  A
C87          C95   1.386       .  A
C87         C104   1.425       .  A
C88         C103   1.425       .  A
C88          C96   1.386       .  A
C89         C101   1.425       .  A
C89          C97   1.385       .  A
C90         C104   1.425       .  A
C90          C98   1.385       .  A
C91          C99   1.385       .  A
C91         C102   1.425       .  A
C92         C100   1.385       .  A
C92         C103   1.425       .  A
C93          C94   1.380   1_545  A
C93         H105   1.082       .  S
C94         H106   1.082       .  S
C95          C96   1.380   1_545  A
C95         H107   1.082       .  S
C96         H108   1.082       .  S
C97          C98   1.378       .  A
C97         H109   1.082       .  S
C98         H110   1.082       .  S
C99         C100   1.378       .  A
C99         H111   1.082       .  S
C100        H112   1.082       .  S
C102        N379   1.462       .  S
C103        N162   1.462       .  S
C104        N356   1.462       .  S
N115        C120   1.359   1_545  A
N115        C119   1.359       .  A
N115        H147   1.041       .  S
N116        C123   1.359       .  A
N116        C124   1.359       .  A
N117        C122   1.360   1_545  A
N117        C121   1.360       .  A
N117        H148   1.041       .  S
N118        C125   1.359       .  A
N118        C126   1.359       .  A
C119        C127   1.386       .  A
C119        C135   1.425       .  A
C120        C136   1.425       .  A
C120        C128   1.386       .  A
C121        C129   1.386       .  A
C121        C138   1.425       .  A
C122        C137   1.425       .  A
C122        C130   1.386       .  A
C123        C135   1.425       .  A
C123        C131   1.385       .  A
C124        C138   1.426       .  A
C124        C132   1.385       .  A
C125        C133   1.385       .  A
C125        C136   1.425       .  A
C126        C134   1.385       .  A
C126        C137   1.425       .  A
C127        C128   1.380   1_545  A
C127        H139   1.082       .  S
C128        H140   1.082       .  S
C129        C130   1.380   1_545  A
C129        H141   1.082       .  S
C130        H142   1.082       .  S
C131        C132   1.378       .  A
C131        H143   1.082       .  S
C132        H144   1.082       .  S
C133        C134   1.378       .  A
C133        H145   1.082       .  S
C134        H146   1.082       .  S
C135        N336   1.462       .  S
C137        N310   1.462       .  S
C138        N222   1.462       .  S
C149        C151   1.545       .  S
C149        C153   1.537       .  S
C149        C152   1.540       .  S
C149        C500   1.431       .  S
C150        C154   1.546       .  S
C150        C156   1.540       .  S
C150        C155   1.537       .  S
C150        C501   1.431       .  S
C151        C159   1.389       .  A
C151        C154   1.384       .  A
C152        C163   1.389       .  A
C152        C155   1.378       .  A
C153        C167   1.386       .  A
C153        C156   1.377       .  A
C154        C157   1.390       .  A
C155        C161   1.386       .  A
C156        C164   1.389       .  A
C157        N158   1.368       .  A
C157        H170   1.082       .  S
N158        C159   1.368       .  A
N158        C192   1.468       .  S
C159        H160   1.082       .  S
C161        N162   1.365       .  A
C161        H171   1.082       .  S
N162        C163   1.367       .  A
C163        H169   1.082       .  S
C164        N165   1.367       .  A
C164        H166   1.082       .  S
N165        C167   1.365       .  A
N165        C250   1.462       .  S
C167        H168   1.082       .  S
N172        C177   1.362       .  A
N172        C176   1.362       .  A
N172        H204   1.041       .  S
N173        C180   1.361   1_655  A
N173        C181   1.361       .  A
N174        C179   1.362       .  A
N174        C178   1.362       .  A
N174        H205   1.040       .  S
N175        C182   1.361   1_655  A
N175        C183   1.361       .  A
C176        C184   1.386       .  A
C176        C192   1.431       .  A
C177        C193   1.431       .  A
C177        C185   1.386       .  A
C178        C186   1.386       .  A
C178        C195   1.431       .  A
C179        C194   1.431       .  A
C179        C187   1.386       .  A
C180        C192   1.429       .  A
C180        C188   1.385       .  A
C181        C195   1.429       .  A
C181        C189   1.385       .  A
C182        C190   1.385       .  A
C182        C193   1.429       .  A
C183        C191   1.385       .  A
C183        C194   1.429       .  A
C184        C185   1.382       .  A
C184        H196   1.082       .  S
C185        H197   1.082       .  S
C186        C187   1.382       .  A
C186        H198   1.082       .  S
C187        H199   1.082       .  S
C188        C189   1.378   1_455  A
C188        H200   1.082       .  S
C189        H201   1.082       .  S
C190        C191   1.378   1_455  A
C190        H202   1.082       .  S
C191        H203   1.082       .  S
C193        N352   1.468       .  S
C194        N215   1.467       .  S
C195        N306   1.468       .  S
C206        C208   1.546       .  S
C206        C210   1.537       .  S
C206        C209   1.540       .  S
C206        C497   1.430       .  S
C207        C211   1.545       .  S
C207        C213   1.540       .  S
C207        C212   1.537       .  S
C207        C495   1.430       .  S
C208        C216   1.390       .  A
C208        C211   1.384       .  A
C209        C220   1.389       .  A
C209        C212   1.377       .  A
C210        C224   1.386       .  A
C210        C213   1.377       .  A
C211        C214   1.389       .  A
C212        C218   1.386       .  A
C213        C221   1.389       .  A
C214        N215   1.368       .  A
C214        H227   1.082       .  S
N215        C216   1.368       .  A
C216        H217   1.082       .  S
C218        N219   1.365       .  A
C218        H228   1.082       .  S
N219        C220   1.367       .  A
N219        C283   1.462       .  S
C220        H226   1.082       .  S
C221        N222   1.367       .  A
C221        H223   1.082       .  S
N222        C224   1.365       .  A
C224        H225   1.082       .  S
N229        C234   1.359       .  A
N229        C233   1.359       .  A
N229        H261   1.041       .  S
N230        C238   1.359       .  A
N230        C747   1.359   1_554  A
N231        C236   1.360       .  A
N231        C235   1.360       .  A
N231        H262   1.041       .  S
N232        C240   1.359       .  A
N232        C749   1.359   1_554  A
C233        C241   1.386       .  A
C233        C249   1.425       .  A
C234        C250   1.425       .  A
C234        C242   1.386       .  A
C235        C243   1.386       .  A
C235        C252   1.425       .  A
C236        C251   1.425       .  A
C236        C244   1.386       .  A
C237        C249   1.426       .  A
C237        C245   1.385       .  A
C237        N740   1.359       .  A
C238        C252   1.426       .  A
C238        C246   1.385       .  A
C239        C247   1.385       .  A
C239        C250   1.426       .  A
C239        N742   1.359       .  A
C240        C248   1.385       .  A
C240        C251   1.426       .  A
C241        C242   1.380       .  A
C241        H253   1.082       .  S
C242        H254   1.082       .  S
C243        C244   1.380       .  A
C243        H255   1.082       .  S
C244        H256   1.082       .  S
C245        C756   1.378       .  A
C245        H257   1.082       .  S
C246        C755   1.378   1_554  A
C246        H258   1.082       .  S
C247        C758   1.378       .  A
C247        H259   1.082       .  S
C248        C757   1.378   1_554  A
C248        H260   1.082       .  S
C249        N313   1.462       .  S
C251        N382   1.463       .  S
N263        C268   1.359       .  A
N263        C267   1.359       .  A
N263        H295   1.041       .  S
N264        C272   1.359       .  A
N264        C781   1.359   1_554  A
N265        C270   1.359       .  A
N265        C269   1.360       .  A
N265        H296   1.041       .  S
N266        C274   1.359       .  A
N266        C783   1.359   1_554  A
C267        C275   1.386       .  A
C267        C283   1.425       .  A
C268        C284   1.425       .  A
C268        C276   1.386       .  A
C269        C277   1.386       .  A
C269        C286   1.425       .  A
C270        C285   1.425       .  A
C270        C278   1.386       .  A
C271        C283   1.425       .  A
C271        C279   1.385       .  A
C271        N774   1.359       .  A
C272        C286   1.425       .  A
C272        C280   1.385       .  A
C273        C281   1.385       .  A
C273        C284   1.425       .  A
C273        N776   1.359       .  A
C274        C282   1.385       .  A
C274        C285   1.426       .  A
C275        C276   1.380       .  A
C275        H287   1.082       .  S
C276        H288   1.082       .  S
C277        C278   1.380       .  A
C277        H289   1.082       .  S
C278        H290   1.082       .  S
C279        C790   1.378       .  A
C279        H291   1.082       .  S
C280        C789   1.378   1_554  A
C280        H292   1.082       .  S
C281        C792   1.378       .  A
C281        H293   1.082       .  S
C282        C791   1.378   1_554  A
C282        H294   1.082       .  S
C284        N359   1.462       .  S
C286        N333   1.462       .  S
C297        C299   1.546       .  S
C297        C301   1.540       .  S
C297        C300   1.537       .  S
C297        C492   1.430       .  S
C298        C302   1.546       .  S
C298        C304   1.537       .  S
C298        C303   1.540       .  S
C298        C493   1.430       .  S
C299        C307   1.390       .  A
C299        C302   1.384       .  A
C300        C311   1.386       .  A
C300        C303   1.377       .  A
C301        C315   1.389       .  A
C301        C304   1.377       .  A
C302        C305   1.390       .  A
C303        C309   1.389       .  A
C304        C312   1.386       .  A
C305        N306   1.368       .  A
C305        H318   1.082       .  S
N306        C307   1.368       .  A
C307        H308   1.082       .  S
C309        N310   1.367       .  A
C309        H319   1.082       .  S
N310        C311   1.365       .  A
C311        H317   1.082       .  S
C312        N313   1.365       .  A
C312        H314   1.082       .  S
N313        C315   1.367       .  A
C315        H316   1.082       .  S
C320        C322   1.546       .  S
C320        C324   1.540       .  S
C320        C323   1.538       .  S
C320        C487   1.430       .  S
C321        C325   1.545       .  S
C321        C327   1.537       .  S
C321        C326   1.540       .  S
C321        C490   1.430       .  S
C322        C330   1.390       .  A
C322        C325   1.384       .  A
C323        C334   1.387       .  A
C323        C326   1.377       .  A
C324        C338   1.389       .  A
C324        C327   1.377       .  A
C325        C328   1.390       .  A
C326        C332   1.389       .  A
C327        C335   1.386       .  A
C328        N329   1.368       .  A
C328        H341   1.082       .  S
N329        C330   1.368       .  A
C330        H331   1.082       .  S
C332        N333   1.367       .  A
C332        H342   1.082       .  S
N333        C334   1.365       .  A
C334        H340   1.082       .  S
C335        N336   1.365       .  A
C335        H337   1.082       .  S
N336        C338   1.367       .  A
C338        H339   1.082       .  S
C343        C345   1.546       .  S
C343        C347   1.540       .  S
C343        C346   1.537       .  S
C343        C483   1.431       .  S
C344        C348   1.545       .  S
C344        C350   1.537       .  S
C344        C349   1.540       .  S
C344        C485   1.431       .  S
C345        C353   1.390       .  A
C345        C348   1.384       .  A
C346        C357   1.386       .  A
C346        C349   1.377       .  A
C347        C361   1.389       .  A
C347        C350   1.377       .  A
C348        C351   1.389       .  A
C349        C355   1.389       .  A
C350        C358   1.386       .  A
C351        N352   1.368       .  A
C351        H364   1.082       .  S
N352        C353   1.368       .  A
C353        H354   1.082       .  S
C355        N356   1.367       .  A
C355        H365   1.082       .  S
N356        C357   1.365       .  A
C357        H363   1.082       .  S
C358        N359   1.365       .  A
C358        H360   1.082       .  S
N359        C361   1.367       .  A
C361        H362   1.082       .  S
C366        C368   1.546       .  S
C366        C370   1.540       .  S
C366        C369   1.537       .  S
C366        C482   1.430       .  S
C367        C371   1.545       .  S
C367        C373   1.537       .  S
C367        C372   1.539       .  S
C367        C480   1.429       .  S
C368        C376   1.390       .  A
C368        C371   1.384       .  A
C369        C380   1.386       .  A
C369        C372   1.377       .  A
C370        C384   1.389       .  A
C370        C373   1.377       .  A
C371        C374   1.390       .  A
C372        C378   1.388       .  A
C373        C381   1.386       .  A
C374        N375   1.368       .  A
C374        H387   1.082       .  S
N375        C376   1.369       .  A
C376        H377   1.082       .  S
C378        N379   1.367       .  A
C378        H388   1.082       .  S
N379        C380   1.365       .  A
C380        H386   1.082       .  S
C381        N382   1.365       .  A
C381        H383   1.082       .  S
N382        C384   1.367       .  A
C384        H385   1.082       .  S
N389        N390   1.312       .  A
N389        N395   1.310       .  A
N389       Mn928   2.153   1_455  S
N390        C397   1.345       .  A
N391        N393   1.310       .  A
N391        N392   1.314       .  A
N391       Mn407   2.163   1_565  S
N392        C398   1.348       .  A
N393        N394   1.312       .  A
N393       Mn928   2.155       .  S
N394        C398   1.345       .  A
N395        N396   1.313       .  A
N395       Mn407   2.162   1_465  S
N396        C397   1.347       .  A
C397        C479   1.399       .  S
C398        C506   1.400       .  S
N399        N405   1.310       .  A
N399        N400   1.312       .  A
N399       Mn939   2.155       .  S
N400        C408   1.345       .  A
N401        N402   1.314       .  A
N401        N403   1.310       .  A
N401       Mn407   2.164   1_455  S
N402        C409   1.348       .  A
N403        N404   1.312       .  A
N403       Mn939   2.153   1_455  S
N404        C409   1.345       .  A
N405        N406   1.314       .  A
N405       Mn407   2.163       .  S
N406        C408   1.347       .  A
Mn407      Cl941   2.524       .  S
C408        C488   1.400       .  S
C409        C509   1.399       .  S
N410        N411   1.312       .  A
N410        N416   1.310       .  A
N410       Mn418   2.154       .  S
N411        C419   1.345       .  A
N412        N414   1.310       .  A
N412        N413   1.314       .  A
N412       Mn430   2.162   1_465  S
N413        C420   1.347       .  A
N414        N415   1.313       .  A
N414       Mn418   2.156   1_455  S
N415        C420   1.345       .  A
N416        N417   1.314       .  A
N416       Mn430   2.163   1_565  S
N417        C419   1.347       .  A
Mn418       N899   2.153   1_655  S
Mn418       N903   2.155       .  S
Mn418      Cl431   2.511   1_565  S
C419        C494   1.400       .  S
C420        C499   1.400       .  S
N421        N422   1.312       .  A
N421        N427   1.310       .  A
N421       Mn429   2.155   1_455  S
N422        C432   1.345       .  A
N423        N424   1.313       .  A
N423        N425   1.310       .  A
N423       Mn430   2.162       .  S
N424        C433   1.347       .  A
N425        N426   1.312       .  A
N425       Mn429   2.154       .  S
N426        C433   1.345       .  A
N427        N428   1.314       .  A
N427       Mn430   2.163   1_455  S
N428        C432   1.348       .  A
Mn429       N909   2.155       .  S
Mn429       N913   2.153   1_655  S
Mn429      Cl431   2.511       .  S
Mn430      Cl431   2.523       .  S
Cl431      Mn917   2.524       .  S
C432        C486   1.400       .  S
C433        C496   1.400       .  S
N434        N435   1.314       .  A
N434        N440   1.310       .  A
N434       Mn463   2.162       .  S
N435        C442   1.347       .  A
N436        N438   1.310       .  A
N436        N437   1.312       .  A
N436       Mn452   2.154       .  S
N437        C443   1.345       .  A
N438        N439   1.313       .  A
N438       Mn463   2.162       .  S
N439        C443   1.347       .  A
N440        N441   1.312       .  A
N440       Mn452   2.155       .  S
N441        C442   1.345       .  A
C442        C507   1.400       .  S
C443        C481   1.399       .  S
N444        N450   1.310       .  A
N444        N445   1.314       .  A
N444       Mn474   2.164       .  S
N445        C453   1.348       .  A
N446        N447   1.312       .  A
N446        N448   1.310       .  A
N446       Mn452   2.155       .  S
N447        C454   1.345       .  A
N448        N449   1.314       .  A
N448       Mn474   2.164       .  S
N449        C454   1.348       .  A
N450        N451   1.312       .  A
N450       Mn452   2.155       .  S
N451        C453   1.345       .  A
Mn452      Cl476   2.511       .  S
C453        C502   1.401       .  S
C454        C484   1.400       .  S
N455        N456   1.313       .  A
N455        N461   1.310       .  A
N455       Mn463   2.162       .  S
N456        C464   1.347       .  A
N457        N459   1.310       .  A
N457        N458   1.312       .  A
N457       Mn475   2.155       .  S
N458        C465   1.345       .  A
N459        N460   1.313       .  A
N459       Mn463   2.162       .  S
N460        C465   1.347       .  A
N461        N462   1.312       .  A
N461       Mn475   2.155       .  S
N462        C464   1.345       .  A
Mn463      Cl476   2.523       .  S
C464        C504   1.400       .  S
C465        C489   1.400       .  S
N466        N467   1.314       .  A
N466        N472   1.310       .  A
N466       Mn474   2.163       .  S
N467        C477   1.347       .  A
N468        N469   1.312       .  A
N468        N470   1.311       .  A
N468       Mn475   2.155       .  S
N469        C478   1.345       .  A
N470        N471   1.314       .  A
N470       Mn474   2.163       .  S
N471        C478   1.347       .  A
N472        N473   1.312       .  A
N472       Mn475   2.154       .  S
N473        C477   1.345       .  A
Mn474      Cl476   2.524       .  S
Mn475      Cl476   2.511       .  S
C477        C498   1.400       .  S
C478        C491   1.400       .  S
C479        C480   1.184       .  T
C481        C482   1.185       .  T
C483        C484   1.185       .  T
C485        C486   1.185       .  T
C487        C488   1.185       .  T
C489        C490   1.185       .  T
C491        C492   1.185       .  T
C493        C494   1.185       .  T
C495        C496   1.185       .  T
C497        C498   1.185       .  T
C499        C500   1.185       .  T
C501        C502   1.185       .  T
C503        C504   1.185       .  T
C505        C506   1.185       .  T
C507        C508   1.185       .  T
C509        C510   1.185       .  T
C511        C513   1.546       .  S
C511        C515   1.537       .  S
C511        C514   1.539       .  S
C511       C1020   1.429       .  S
C512        C516   1.546       .  S
C512        C518   1.540       .  S
C512        C517   1.537       .  S
C512       C1018   1.430       .  S
C513        C521   1.390       .  A
C513        C516   1.384       .  A
C514        C525   1.388       .  A
C514        C517   1.377       .  A
C515        C529   1.386       .  A
C515        C518   1.377       .  A
C516        C519   1.390       .  A
C517        C523   1.386       .  A
C518        C526   1.389       .  A
C519        N520   1.368       .  A
C519        H532   1.082       .  S
N520        C521   1.368       .  A
N520        C555   1.468       .  S
C521        H522   1.082       .  S
C523        N524   1.365       .  A
C523        H533   1.082       .  S
N524        C525   1.367       .  A
N524        C611   1.462       .  S
C525        H531   1.082       .  S
C526        N527   1.367       .  A
C526        H528   1.082       .  S
N527        C529   1.365       .  A
N527        C795   1.463       .  S
C529        H530   1.082       .  S
N534        C539   1.362   1_655  A
N534        C538   1.362       .  A
N534        H566   1.041       .  S
N535        C542   1.361       .  A
N535        C543   1.361       .  A
N536        C541   1.362   1_655  A
N536        C540   1.362       .  A
N536        H567   1.040       .  S
N537        C544   1.361       .  A
N537        C545   1.361       .  A
C538        C546   1.386       .  A
C538        C554   1.431       .  A
C539        C555   1.431       .  A
C539        C547   1.386       .  A
C540        C548   1.386       .  A
C540        C557   1.431       .  A
C541        C556   1.431       .  A
C541        C549   1.386       .  A
C542        C554   1.429       .  A
C542        C550   1.385       .  A
C543        C557   1.429       .  A
C543        C551   1.385       .  A
C544        C552   1.385       .  A
C544        C555   1.429       .  A
C545        C553   1.385       .  A
C545        C556   1.429       .  A
C546        C547   1.382   1_655  A
C546        H558   1.082       .  S
C547        H559   1.082       .  S
C548        C549   1.382   1_655  A
C548        H560   1.082       .  S
C549        H561   1.082       .  S
C550        C551   1.378       .  A
C550        H562   1.082       .  S
C551        H563   1.082       .  S
C552        C553   1.378       .  A
C552        H564   1.082       .  S
C553        H565   1.082       .  S
C554        N839   1.468       .  S
C556        N885   1.468       .  S
C557        N577   1.468       .  S
C568        C570   1.546       .  S
C568        C572   1.538       .  S
C568        C571   1.540       .  S
C568       C1015   1.430       .  S
C569        C573   1.546       .  S
C569        C575   1.540       .  S
C569        C574   1.537       .  S
C569       C1013   1.430       .  S
C570        C578   1.391       .  A
C570        C573   1.384       .  A
C571        C582   1.388       .  A
C571        C574   1.377       .  A
C572        C586   1.387       .  A
C572        C575   1.377       .  A
C573        C576   1.390       .  A
C574        C580   1.386       .  A
C575        C583   1.389       .  A
C576        N577   1.368       .  A
C576        H589   1.082       .  S
N577        C578   1.369       .  A
C578        H579   1.082       .  S
C580        N581   1.365       .  A
C580        H590   1.082       .  S
N581        C582   1.367       .  A
N581        C646   1.462       .  S
C582        H588   1.082       .  S
C583        N584   1.367       .  A
C583        H585   1.082       .  S
N584        C586   1.365       .  A
N584        C762   1.463       .  S
C586        H587   1.082       .  S
N591        C596   1.359   1_545  A
N591        C595   1.359       .  A
N591        H623   1.041       .  S
N592        C599   1.359       .  A
N592        C600   1.359       .  A
N593        C598   1.360   1_545  A
N593        C597   1.360       .  A
N593        H624   1.041       .  S
N594        C601   1.359       .  A
N594        C602   1.359       .  A
C595        C603   1.386       .  A
C595        C611   1.425       .  A
C596        C612   1.425       .  A
C596        C604   1.386       .  A
C597        C605   1.386       .  A
C597        C614   1.425       .  A
C598        C613   1.425       .  A
C598        C606   1.386       .  A
C599        C611   1.425       .  A
C599        C607   1.385       .  A
C600        C614   1.425       .  A
C600        C608   1.385       .  A
C601        C609   1.385       .  A
C601        C612   1.425       .  A
C602        C610   1.385       .  A
C602        C613   1.425       .  A
C603        C604   1.380   1_545  A
C603        H615   1.082       .  S
C604        H616   1.082       .  S
C605        C606   1.380   1_545  A
C605        H617   1.082       .  S
C606        H618   1.082       .  S
C607        C608   1.378       .  A
C607        H619   1.082       .  S
C608        H620   1.082       .  S
C609        C610   1.378       .  A
C609        H621   1.082       .  S
C610        H622   1.082       .  S
C612        N889   1.462       .  S
C613        N672   1.462       .  S
C614        N866   1.462       .  S
N625        C630   1.359   1_545  A
N625        C629   1.359       .  A
N625        H657   1.041       .  S
N626        C633   1.359       .  A
N626        C634   1.359       .  A
N627        C632   1.360   1_545  A
N627        C631   1.360       .  A
N627        H658   1.041       .  S
N628        C635   1.359       .  A
N628        C636   1.359       .  A
C629        C637   1.386       .  A
C629        C645   1.425       .  A
C630        C646   1.425       .  A
C630        C638   1.386       .  A
C631        C639   1.386       .  A
C631        C648   1.425       .  A
C632        C647   1.425       .  A
C632        C640   1.386       .  A
C633        C645   1.425       .  A
C633        C641   1.385       .  A
C634        C648   1.426       .  A
C634        C642   1.385       .  A
C635        C643   1.385       .  A
C635        C646   1.425       .  A
C636        C644   1.385       .  A
C636        C647   1.425       .  A
C637        C638   1.380   1_545  A
C637        H649   1.082       .  S
C638        H650   1.082       .  S
C639        C640   1.380   1_545  A
C639        H651   1.082       .  S
C640        H652   1.082       .  S
C641        C642   1.378       .  A
C641        H653   1.082       .  S
C642        H654   1.082       .  S
C643        C644   1.378       .  A
C643        H655   1.082       .  S
C644        H656   1.082       .  S
C645        N846   1.462       .  S
C647        N820   1.462       .  S
C648        N732   1.462       .  S
C659        C661   1.545       .  S
C659        C663   1.537       .  S
C659        C662   1.540       .  S
C659       C1010   1.431       .  S
C660        C664   1.546       .  S
C660        C666   1.540       .  S
C660        C665   1.537       .  S
C660       C1011   1.431       .  S
C661        C669   1.389       .  A
C661        C664   1.384       .  A
C662        C673   1.389       .  A
C662        C665   1.378       .  A
C663        C677   1.386       .  A
C663        C666   1.377       .  A
C664        C667   1.390       .  A
C665        C671   1.386       .  A
C666        C674   1.389       .  A
C667        N668   1.368       .  A
C667        H680   1.082       .  S
N668        C669   1.368       .  A
N668        C702   1.468       .  S
C669        H670   1.082       .  S
C671        N672   1.365       .  A
C671        H681   1.082       .  S
N672        C673   1.367       .  A
C673        H679   1.082       .  S
C674        N675   1.367       .  A
C674        H676   1.082       .  S
N675        C677   1.365       .  A
N675        C760   1.462       .  S
C677        H678   1.082       .  S
N682        C687   1.362       .  A
N682        C686   1.362       .  A
N682        H714   1.041       .  S
N683        C690   1.361   1_655  A
N683        C691   1.361       .  A
N684        C689   1.362       .  A
N684        C688   1.362       .  A
N684        H715   1.040       .  S
N685        C692   1.361   1_655  A
N685        C693   1.361       .  A
C686        C694   1.386       .  A
C686        C702   1.431       .  A
C687        C703   1.431       .  A
C687        C695   1.386       .  A
C688        C696   1.386       .  A
C688        C705   1.431       .  A
C689        C704   1.431       .  A
C689        C697   1.386       .  A
C690        C702   1.429       .  A
C690        C698   1.385       .  A
C691        C705   1.429       .  A
C691        C699   1.385       .  A
C692        C700   1.385       .  A
C692        C703   1.429       .  A
C693        C701   1.385       .  A
C693        C704   1.429       .  A
C694        C695   1.382       .  A
C694        H706   1.082       .  S
C695        H707   1.082       .  S
C696        C697   1.382       .  A
C696        H708   1.082       .  S
C697        H709   1.082       .  S
C698        C699   1.378   1_455  A
C698        H710   1.082       .  S
C699        H711   1.082       .  S
C700        C701   1.378   1_455  A
C700        H712   1.082       .  S
C701        H713   1.082       .  S
C703        N862   1.468       .  S
C704        N725   1.467       .  S
C705        N816   1.468       .  S
C716        C718   1.546       .  S
C716        C720   1.537       .  S
C716        C719   1.540       .  S
C716       C1007   1.430       .  S
C717        C721   1.545       .  S
C717        C723   1.540       .  S
C717        C722   1.537       .  S
C717       C1005   1.430       .  S
C718        C726   1.390       .  A
C718        C721   1.384       .  A
C719        C730   1.389       .  A
C719        C722   1.377       .  A
C720        C734   1.386       .  A
C720        C723   1.377       .  A
C721        C724   1.389       .  A
C722        C728   1.386       .  A
C723        C731   1.389       .  A
C724        N725   1.368       .  A
C724        H737   1.082       .  S
N725        C726   1.368       .  A
C726        H727   1.082       .  S
C728        N729   1.365       .  A
C728        H738   1.082       .  S
N729        C730   1.367       .  A
N729        C793   1.462       .  S
C730        H736   1.082       .  S
C731        N732   1.367       .  A
C731        H733   1.082       .  S
N732        C734   1.365       .  A
C734        H735   1.082       .  S
N739        C744   1.359       .  A
N739        C743   1.359       .  A
N739        H771   1.041       .  S
N740        C748   1.359       .  A
N741        C746   1.360       .  A
N741        C745   1.360       .  A
N741        H772   1.041       .  S
N742        C750   1.359       .  A
C743        C751   1.386       .  A
C743        C759   1.425       .  A
C744        C760   1.425       .  A
C744        C752   1.386       .  A
C745        C753   1.386       .  A
C745        C762   1.425       .  A
C746        C761   1.425       .  A
C746        C754   1.386       .  A
C747        C759   1.426       .  A
C747        C755   1.385       .  A
C748        C762   1.426       .  A
C748        C756   1.385       .  A
C749        C757   1.385       .  A
C749        C760   1.426       .  A
C750        C758   1.385       .  A
C750        C761   1.426       .  A
C751        C752   1.380       .  A
C751        H763   1.082       .  S
C752        H764   1.082       .  S
C753        C754   1.380       .  A
C753        H765   1.082       .  S
C754        H766   1.082       .  S
C755        H767   1.082       .  S
C756        H768   1.082       .  S
C757        H769   1.082       .  S
C758        H770   1.082       .  S
C759        N823   1.462       .  S
C761        N892   1.463       .  S
N773        C778   1.359       .  A
N773        C777   1.359       .  A
N773        H805   1.041       .  S
N774        C782   1.359       .  A
N775        C780   1.359       .  A
N775        C779   1.360       .  A
N775        H806   1.041       .  S
N776        C784   1.359       .  A
C777        C785   1.386       .  A
C777        C793   1.425       .  A
C778        C794   1.425       .  A
C778        C786   1.386       .  A
C779        C787   1.386       .  A
C779        C796   1.425       .  A
C780        C795   1.425       .  A
C780        C788   1.386       .  A
C781        C793   1.425       .  A
C781        C789   1.385       .  A
C782        C796   1.425       .  A
C782        C790   1.385       .  A
C783        C791   1.385       .  A
C783        C794   1.425       .  A
C784        C792   1.385       .  A
C784        C795   1.426       .  A
C785        C786   1.380       .  A
C785        H797   1.082       .  S
C786        H798   1.082       .  S
C787        C788   1.380       .  A
C787        H799   1.082       .  S
C788        H800   1.082       .  S
C789        H801   1.082       .  S
C790        H802   1.082       .  S
C791        H803   1.082       .  S
C792        H804   1.082       .  S
C794        N869   1.462       .  S
C796        N843   1.462       .  S
C807        C809   1.546       .  S
C807        C811   1.540       .  S
C807        C810   1.537       .  S
C807       C1002   1.430       .  S
C808        C812   1.546       .  S
C808        C814   1.537       .  S
C808        C813   1.540       .  S
C808       C1003   1.430       .  S
C809        C817   1.390       .  A
C809        C812   1.384       .  A
C810        C821   1.386       .  A
C810        C813   1.377       .  A
C811        C825   1.389       .  A
C811        C814   1.377       .  A
C812        C815   1.390       .  A
C813        C819   1.389       .  A
C814        C822   1.386       .  A
C815        N816   1.368       .  A
C815        H828   1.082       .  S
N816        C817   1.368       .  A
C817        H818   1.082       .  S
C819        N820   1.367       .  A
C819        H829   1.082       .  S
N820        C821   1.365       .  A
C821        H827   1.082       .  S
C822        N823   1.365       .  A
C822        H824   1.082       .  S
N823        C825   1.367       .  A
C825        H826   1.082       .  S
C830        C832   1.546       .  S
C830        C834   1.540       .  S
C830        C833   1.538       .  S
C830        C997   1.430       .  S
C831        C835   1.545       .  S
C831        C837   1.537       .  S
C831        C836   1.540       .  S
C831       C1000   1.430       .  S
C832        C840   1.390       .  A
C832        C835   1.384       .  A
C833        C844   1.387       .  A
C833        C836   1.377       .  A
C834        C848   1.389       .  A
C834        C837   1.377       .  A
C835        C838   1.390       .  A
C836        C842   1.389       .  A
C837        C845   1.386       .  A
C838        N839   1.368       .  A
C838        H851   1.082       .  S
N839        C840   1.368       .  A
C840        H841   1.082       .  S
C842        N843   1.367       .  A
C842        H852   1.082       .  S
N843        C844   1.365       .  A
C844        H850   1.082       .  S
C845        N846   1.365       .  A
C845        H847   1.082       .  S
N846        C848   1.367       .  A
C848        H849   1.082       .  S
C853        C855   1.546       .  S
C853        C857   1.540       .  S
C853        C856   1.537       .  S
C853        C993   1.431       .  S
C854        C858   1.545       .  S
C854        C860   1.537       .  S
C854        C859   1.540       .  S
C854        C995   1.431       .  S
C855        C863   1.390       .  A
C855        C858   1.384       .  A
C856        C867   1.386       .  A
C856        C859   1.377       .  A
C857        C871   1.389       .  A
C857        C860   1.377       .  A
C858        C861   1.389       .  A
C859        C865   1.389       .  A
C860        C868   1.386       .  A
C861        N862   1.368       .  A
C861        H874   1.082       .  S
N862        C863   1.368       .  A
C863        H864   1.082       .  S
C865        N866   1.367       .  A
C865        H875   1.082       .  S
N866        C867   1.365       .  A
C867        H873   1.082       .  S
C868        N869   1.365       .  A
C868        H870   1.082       .  S
N869        C871   1.367       .  A
C871        H872   1.082       .  S
C876        C878   1.546       .  S
C876        C880   1.540       .  S
C876        C879   1.537       .  S
C876        C992   1.430       .  S
C877        C881   1.545       .  S
C877        C883   1.537       .  S
C877        C882   1.539       .  S
C877        C990   1.429       .  S
C878        C886   1.390       .  A
C878        C881   1.384       .  A
C879        C890   1.386       .  A
C879        C882   1.377       .  A
C880        C894   1.389       .  A
C880        C883   1.377       .  A
C881        C884   1.390       .  A
C882        C888   1.388       .  A
C883        C891   1.386       .  A
C884        N885   1.368       .  A
C884        H897   1.082       .  S
N885        C886   1.369       .  A
C886        H887   1.082       .  S
C888        N889   1.367       .  A
C888        H898   1.082       .  S
N889        C890   1.365       .  A
C890        H896   1.082       .  S
C891        N892   1.365       .  A
C891        H893   1.082       .  S
N892        C894   1.367       .  A
C894        H895   1.082       .  S
N899        N900   1.312       .  A
N899        N905   1.310       .  A
N900        C907   1.345       .  A
N901        N903   1.310       .  A
N901        N902   1.314       .  A
N901       Mn917   2.163   1_565  S
N902        C908   1.348       .  A
N903        N904   1.312       .  A
N904        C908   1.345       .  A
N905        N906   1.313       .  A
N905       Mn917   2.162   1_465  S
N906        C907   1.347       .  A
C907        C989   1.399       .  S
C908       C1016   1.400       .  S
N909        N915   1.310       .  A
N909        N910   1.312       .  A
N910        C918   1.345       .  A
N911        N912   1.314       .  A
N911        N913   1.310       .  A
N911       Mn917   2.164   1_455  S
N912        C919   1.348       .  A
N913        N914   1.312       .  A
N914        C919   1.345       .  A
N915        N916   1.314       .  A
N915       Mn917   2.163       .  S
N916        C918   1.347       .  A
C918        C998   1.400       .  S
C919       C1019   1.399       .  S
N920        N921   1.312       .  A
N920        N926   1.310       .  A
N920       Mn928   2.154   1_556  S
N921        C929   1.345       .  A
N922        N924   1.310       .  A
N922        N923   1.314       .  A
N922       Mn940   2.162   1_465  S
N923        C930   1.347       .  A
N924        N925   1.313       .  A
N924       Mn928   2.156   1_456  S
N925        C930   1.345       .  A
N926        N927   1.314       .  A
N926       Mn940   2.163   1_565  S
N927        C929   1.347       .  A
Mn928      Cl941   2.511   1_565  S
C929       C1004   1.400       .  S
C930       C1009   1.400       .  S
N931        N932   1.312       .  A
N931        N937   1.310       .  A
N931       Mn939   2.155   1_456  S
N932        C942   1.345       .  A
N933        N934   1.313       .  A
N933        N935   1.310       .  A
N933       Mn940   2.162       .  S
N934        C943   1.347       .  A
N935        N936   1.312       .  A
N935       Mn939   2.154   1_556  S
N936        C943   1.345       .  A
N937        N938   1.314       .  A
N937       Mn940   2.163   1_455  S
N938        C942   1.348       .  A
Mn939      Cl941   2.511       .  S
Mn940      Cl941   2.523   1_556  S
C942        C996   1.400       .  S
C943       C1006   1.400       .  S
N944        N945   1.314       .  A
N944        N950   1.310       .  A
N944       Mn973   2.162       .  S
N945        C952   1.347       .  A
N946        N948   1.310       .  A
N946        N947   1.312       .  A
N946       Mn962   2.154       .  S
N947        C953   1.345       .  A
N948        N949   1.313       .  A
N948       Mn973   2.162       .  S
N949        C953   1.347       .  A
N950        N951   1.312       .  A
N950       Mn962   2.155       .  S
N951        C952   1.345       .  A
C952       C1017   1.400       .  S
C953        C991   1.399       .  S
N954        N960   1.310       .  A
N954        N955   1.314       .  A
N954       Mn984   2.164       .  S
N955        C963   1.348       .  A
N956        N957   1.312       .  A
N956        N958   1.310       .  A
N956       Mn962   2.155       .  S
N957        C964   1.345       .  A
N958        N959   1.314       .  A
N958       Mn984   2.164       .  S
N959        C964   1.348       .  A
N960        N961   1.312       .  A
N960       Mn962   2.155       .  S
N961        C963   1.345       .  A
Mn962      Cl986   2.511       .  S
C963       C1012   1.401       .  S
C964        C994   1.400       .  S
N965        N966   1.313       .  A
N965        N971   1.310       .  A
N965       Mn973   2.162       .  S
N966        C974   1.347       .  A
N967        N969   1.310       .  A
N967        N968   1.312       .  A
N967       Mn985   2.155       .  S
N968        C975   1.345       .  A
N969        N970   1.313       .  A
N969       Mn973   2.162       .  S
N970        C975   1.347       .  A
N971        N972   1.312       .  A
N971       Mn985   2.155       .  S
N972        C974   1.345       .  A
Mn973      Cl986   2.523       .  S
C974       C1014   1.400       .  S
C975        C999   1.400       .  S
N976        N977   1.314       .  A
N976        N982   1.310       .  A
N976       Mn984   2.163       .  S
N977        C987   1.347       .  A
N978        N979   1.312       .  A
N978        N980   1.311       .  A
N978       Mn985   2.155       .  S
N979        C988   1.345       .  A
N980        N981   1.314       .  A
N980       Mn984   2.163       .  S
N981        C988   1.347       .  A
N982        N983   1.312       .  A
N982       Mn985   2.154       .  S
N983        C987   1.345       .  A
Mn984      Cl986   2.524       .  S
Mn985      Cl986   2.511       .  S
C987       C1008   1.400       .  S
C988       C1001   1.400       .  S
C989        C990   1.184       .  T
C991        C992   1.185       .  T
C993        C994   1.185       .  T
C995        C996   1.185       .  T
C997        C998   1.185       .  T
C999       C1000   1.185       .  T
C1001      C1002   1.185       .  T
C1003      C1004   1.185       .  T
C1005      C1006   1.185       .  T
C1007      C1008   1.185       .  T
C1009      C1010   1.185       .  T
C1011      C1012   1.185       .  T
C1013      C1014   1.185       .  T
C1015      C1016   1.185       .  T
C1017      C1018   1.185       .  T
C1019      C1020   1.185       .  T
