geometry optimzed in LAMMPS
_audit_creation_date              2020-12-01 
_audit_creation_method            'lammps2cif' 
_symmetry_space_group_name_H-M    'P1' 
_symmetry_Int_Tables_number       1 
_symmetry_cell_setting            triclinic 
loop_ 
_symmetry_equiv_pos_as_xyz 
  x,y,z 
_cell_length_a                    42.27889649 
_cell_length_b                    42.20285226595763 
_cell_length_c                    57.505492115140434 
_cell_angle_alpha                 89.75518261404831 
_cell_angle_beta                  90.19343834056926 
_cell_angle_gamma                 89.86768984331658 
loop_ 
_atom_site_label 
_atom_site_type_symbol 
_atom_site_fract_x 
_atom_site_fract_y 
_atom_site_fract_z 
_atom_site_charge 
O1          O  0.91101906  0.91003240  0.65327878    -0.72400
O2          O  0.87572539  0.82325645  0.64523261    -0.73400
O3          O  0.91180832  0.86462436  0.61720107    -0.62000
O4          O  0.87486596  0.86880552  0.68120645    -0.70400
O5          O  0.83108449  0.89038704  0.66669830    -0.69900
O6          O  0.86752032  0.88439670  0.60215176    -0.61200
O7          O  0.83119961  0.84361773  0.63097143    -0.73700
O8          O  0.86772102  0.93127156  0.63775340    -0.72500
Cu9        Cu  0.89483323  0.86600235  0.64973367     1.04600
Cu10       Cu  0.84776543  0.88819236  0.63389542     1.04300
C11         C  0.89523920  0.93432962  0.64671460     0.93800
C12         C  0.84803057  0.81962675  0.63682258     0.93000
C13         C  0.89550024  0.87340951  0.59957443     0.85100
C14         C  0.84726023  0.88039721  0.68410037     0.91400
O15         O  0.15213494  0.17290328  0.64409931    -0.72400
O16         O  0.07616227  0.11711283  0.65467730    -0.73400
O17         O  0.11331263  0.15778772  0.68280276    -0.62000
O18         O  0.11447961  0.13281158  0.61588317    -0.70400
O19         O  0.14640265  0.09240984  0.62405495    -0.69900
O20         O  0.14613922  0.11841522  0.69169253    -0.61200
O21         O  0.10856218  0.07745512  0.66381602    -0.73700
O22         O  0.18365534  0.13220379  0.65227219    -0.72500
Cu23       Cu  0.11286861  0.14652327  0.64908548     1.04600
Cu24       Cu  0.14720183  0.10362922  0.65827982     1.04300
C25         C  0.17989158  0.16113586  0.64633719     0.93800
C26         C  0.08063350  0.08837874  0.66105169     0.93000
C27         C  0.12977644  0.14250094  0.69777027     0.85100
C28         C  0.13096595  0.10918515  0.60926023     0.91400
O29         O  0.11155474  0.28626524  0.85628463    -0.72400
O30         O  0.12622925  0.32911487  0.91827402    -0.73400
O31         O  0.16350901  0.29395195  0.88618385    -0.62000
O32         O  0.07383987  0.32260202  0.88742844    -0.70400
O33         O  0.05935152  0.27940520  0.90670445    -0.69900
O34         O  0.15075312  0.24904589  0.90407092    -0.61200
O35         O  0.11327657  0.28403672  0.93583127    -0.73700
O36         O  0.09613393  0.24284629  0.87499506    -0.72500
Cu37       Cu  0.11918529  0.30955480  0.88643414     1.04600
Cu38       Cu  0.10438639  0.26226150  0.90604060     1.04300
C39         C  0.10178139  0.25758226  0.85607454     0.93800
C40         C  0.12216994  0.31280553  0.93686296     0.93000
C41         C  0.17138073  0.26704264  0.89448310     0.85100
C42         C  0.05242975  0.30610441  0.89730919     0.91400
O43         O  0.86195632  0.53753857  0.92639019    -0.72400
O44         O  0.82591143  0.52635446  0.86290291    -0.73400
O45         O  0.86744391  0.48965430  0.89187547    -0.62000
O46         O  0.82195775  0.57500154  0.89684633    -0.70400
O47         O  0.86479449  0.59807694  0.88243806    -0.69900
O48         O  0.90783013  0.51503236  0.87582505    -0.61200
O49         O  0.86637547  0.55168642  0.84693767    -0.73700
O50         O  0.90446185  0.56126361  0.91206315    -0.72500
Cu51       Cu  0.84288544  0.53124866  0.89503633     1.04600
Cu52       Cu  0.88737069  0.55726082  0.87880044     1.04300
C53         C  0.88853226  0.55107069  0.92950864     0.93800
C54         C  0.83960162  0.53768339  0.84500717     0.93000
C55         C  0.89508569  0.48937617  0.88277429     0.85100
C56         C  0.83673368  0.59998217  0.89025764     0.91400
O57         O  0.44673168  0.29038750  0.67671652    -0.72400
O58         O  0.43944861  0.32207550  0.61019719    -0.73400
O59         O  0.40635514  0.27843288  0.63863854    -0.62000
O60         O  0.47976396  0.33530934  0.64885618    -0.70400
O61         O  0.51301360  0.29838403  0.63632374    -0.69900
O62         O  0.43838382  0.23925490  0.62833247    -0.61200
O63         O  0.47123675  0.28300255  0.59924786    -0.73700
O64         O  0.48110464  0.25398604  0.66499625    -0.72500
Cu65       Cu  0.44199209  0.30793809  0.64397678     1.04600
Cu66       Cu  0.47707476  0.26733213  0.63178327     1.04300
C67         C  0.46523694  0.26705194  0.68115523     0.93800
C68         C  0.45404589  0.30694090  0.59420529     0.93000
C69         C  0.41052441  0.24979660  0.63234719     0.85100
C70         C  0.50781543  0.32620274  0.64425257     0.91400
O71         O  0.67165819  0.51244313  0.65107440    -0.72400
O72         O  0.70134414  0.60203035  0.64731264    -0.73400
O73         O  0.66159811  0.56370174  0.61946636    -0.62000
O74         O  0.71246593  0.55125180  0.67873012    -0.70400
O75         O  0.75320936  0.53520525  0.65756702    -0.69900
O76         O  0.70315340  0.54802223  0.59903367    -0.61200
O77         O  0.74278976  0.58677080  0.62652536    -0.73700
O78         O  0.71243689  0.49636849  0.62995957    -0.72500
Cu79       Cu  0.68530891  0.55776895  0.64992137     1.04600
Cu80       Cu  0.72933967  0.54096335  0.62761223     1.04300
C81         C  0.68679437  0.49034662  0.64080221     0.93800
C82         C  0.72655684  0.60863739  0.63623175     0.93000
C83         C  0.67475046  0.55831317  0.59986108     0.85100
C84         C  0.74121263  0.54182184  0.67730308     0.91400
O85         O  0.64900367  0.90705389  0.86891438    -0.72400
O86         O  0.67904147  0.81652730  0.86903380    -0.73400
O87         O  0.64702723  0.85584703  0.90111815    -0.62000
O88         O  0.68102991  0.86753996  0.83665448    -0.70400
O89         O  0.72705309  0.88321230  0.85123338    -0.69900
O90         O  0.69319847  0.87095762  0.91578267    -0.61200
O91         O  0.72513078  0.83185348  0.88367061    -0.73700
O92         O  0.69482539  0.92251976  0.88390771    -0.72500
Cu93       Cu  0.66244176  0.86128060  0.86837988     1.04600
Cu94       Cu  0.71168806  0.87772781  0.88410700     1.04300
C95         C  0.66695461  0.92901489  0.87663864     0.93800
C96         C  0.70666650  0.80984631  0.87669709     0.93000
C97         C  0.66489264  0.86111968  0.91860924     0.85100
C98         C  0.70938627  0.87704789  0.83373873     0.91400
O99         O  0.43062447  0.19320941  0.89931356    -0.72400
O100        O  0.50551765  0.13503028  0.88543060    -0.73400
O101        O  0.46606392  0.17747360  0.85876891    -0.62000
O102        O  0.47049930  0.15221266  0.92587954    -0.70400
O103        O  0.43720926  0.11267691  0.91917074    -0.69900
O104        O  0.43280109  0.13811934  0.85149863    -0.61200
O105        O  0.47107822  0.09660598  0.87835761    -0.73700
O106        O  0.39857502  0.15297636  0.89165709    -0.72500
Cu107      Cu  0.46946880  0.16589213  0.89258313     1.04600
Cu108      Cu  0.43391536  0.12371280  0.88497462     1.04300
C109        C  0.40267365  0.18186011  0.89725139     0.93800
C110        C  0.49950375  0.10634283  0.87967733     0.93000
C111        C  0.44831911  0.16234858  0.84463061     0.85100
C112        C  0.45426261  0.12882088  0.93322347     0.91400
O113        O  0.36344626  0.45206771  0.39052673    -0.72400
O114        O  0.30822448  0.37469916  0.40199776    -0.73400
O115        O  0.35302588  0.40964773  0.42846383    -0.62000
O116        O  0.31717551  0.41776415  0.36450707    -0.70400
O117        O  0.35478599  0.38645502  0.35054817    -0.69900
O118        O  0.39145068  0.37837675  0.41569664    -0.61200
O119        O  0.34722115  0.34472188  0.38861160    -0.73700
O120        O  0.40052015  0.41973136  0.37700948    -0.72500
Cu121      Cu  0.33415483  0.41472426  0.39685160     1.04600
Cu122      Cu  0.37485532  0.38134730  0.38250252     1.04300
C123        C  0.39089491  0.44755574  0.38173205     0.93800
C124        C  0.31952133  0.34737123  0.39704538     0.93000
C125        C  0.37733435  0.39251042  0.43240828     0.85100
C126        C  0.32973496  0.40314047  0.34751807     0.91400
O127        O  0.58465461  0.60124981  0.37295779    -0.72400
O128        O  0.67449969  0.63261744  0.37541039    -0.73400
O129        O  0.63585244  0.59500758  0.40494326    -0.62000
O130        O  0.62387338  0.63872487  0.34330128    -0.70400
O131        O  0.60571624  0.68138665  0.36139257    -0.69900
O132        O  0.62038900  0.63850978  0.42327316    -0.61200
O133        O  0.65757276  0.67626407  0.39283831    -0.73700
O134        O  0.56860279  0.64391313  0.39207123    -0.72500
Cu135      Cu  0.63022714  0.61535416  0.37350614     1.04600
Cu136      Cu  0.61250739  0.66153162  0.39300243     1.04300
C137        C  0.56256842  0.61743874  0.38243098     0.93800
C138        C  0.68007388  0.65967649  0.38438262     0.93000
C139        C  0.63036056  0.60987532  0.42381017     0.85100
C140        C  0.61298064  0.66698961  0.34264038     0.91400
O141        O  0.99393054  0.61139297  0.14666994    -0.72400
O142        O  0.92053005  0.66668668  0.13236025    -0.73400
O143        O  0.95483069  0.62095026  0.10659626    -0.62000
O144        O  0.95988581  0.65852079  0.17184194    -0.70400
O145        O  0.99250940  0.69520972  0.15818184    -0.69900
O146        O  0.98733414  0.65866343  0.09438447    -0.61200
O147        O  0.95192952  0.70488188  0.11946770    -0.73700
O148        O  0.02722536  0.64791826  0.13360993    -0.72500
Cu149      Cu  0.95624422  0.63802640  0.13981590     1.04600
Cu150      Cu  0.99094335  0.67790986  0.12595419     1.04300
C151        C  0.02203230  0.62049515  0.14241920     0.93800
C152        C  0.92420480  0.69446900  0.12401329     0.93000
C153        C  0.97023332  0.63449997  0.09016526     0.85100
C154        C  0.97675756  0.68336554  0.17495341     0.91400
O155        O  0.22946809  0.39460468  0.17116477    -0.72400
O156        O  0.19464937  0.39011893  0.10558600    -0.73400
O157        O  0.23150465  0.34928340  0.13466380    -0.62000
O158        O  0.19178972  0.43507955  0.14213293    -0.70400
O159        O  0.23473047  0.45807713  0.12784909    -0.69900
O160        O  0.27542497  0.37209520  0.12189341    -0.61200
O161        O  0.23885390  0.41198905  0.09244085    -0.73700
O162        O  0.27218917  0.41842612  0.15721772    -0.72500
Cu163      Cu  0.21026836  0.39151088  0.13888818     1.04600
Cu164      Cu  0.25677936  0.41594426  0.12442828     1.04300
C165        C  0.25670051  0.40712389  0.17432483     0.93800
C166        C  0.21155597  0.40028121  0.08869688     0.93000
C167        C  0.25986923  0.34716953  0.12722803     0.85100
C168        C  0.20662296  0.46001774  0.13581992     0.91400
O169        O  0.38227225  0.08184381  0.18456406    -0.72400
O170        O  0.40610133  0.08150024  0.11653538    -0.73400
O171        O  0.36425262  0.11693940  0.14447948    -0.62000
O172        O  0.42521086  0.04678175  0.15659639    -0.70400
O173        O  0.38827600  0.01080878  0.14942460    -0.69900
O174        O  0.32559631  0.08267034  0.13783493    -0.61200
O175        O  0.36806913  0.04648255  0.10991539    -0.73700
O176        O  0.34459498  0.04667183  0.17740522    -0.72500
Cu177      Cu  0.39575875  0.08289106  0.15081724     1.04600
Cu178      Cu  0.35531238  0.04533816  0.14342282     1.04300
C179        C  0.35924684  0.06471431  0.19158788     0.93800
C180        C  0.39046067  0.06400365  0.10249657     0.93000
C181        C  0.33548000  0.11126040  0.13922246     0.85100
C182        C  0.41688826  0.01790390  0.15465076     0.91400
O183        O  0.61912111  0.76366642  0.16580435    -0.72400
O184        O  0.62504750  0.79934293  0.10096508    -0.73400
O185        O  0.66308181  0.75903451  0.12870466    -0.62000
O186        O  0.58045664  0.80437368  0.13769151    -0.70400
O187        O  0.60611946  0.84574299  0.15206121    -0.69900
O188        O  0.68910810  0.80118522  0.14147114    -0.61200
O189        O  0.64981499  0.84162243  0.11481566    -0.73700
O190        O  0.64625188  0.80479104  0.17910996    -0.72500
Cu191      Cu  0.62092422  0.78016382  0.13287684     1.04600
Cu192      Cu  0.64859491  0.82482116  0.14740972     1.04300
C193        C  0.63261818  0.77822959  0.18257208     0.93800
C194        C  0.63884233  0.82591597  0.09769167     0.93000
C195        C  0.68907769  0.77307769  0.13327323     0.85100
C196        C  0.58024371  0.83238749  0.14599924     0.91400
O197        O  0.89548852  0.79851988  0.37672851    -0.72400
O198        O  0.97069241  0.85331453  0.36667708    -0.73400
O199        O  0.94276947  0.80217301  0.34210083    -0.62000
O200        O  0.92326003  0.84881179  0.40169783    -0.70400
O201        O  0.95286751  0.81417762  0.42112471    -0.69900
O202        O  0.97279806  0.76834719  0.36197280    -0.61200
O203        O  0.00113069  0.82010793  0.38679950    -0.73700
O204        O  0.92464376  0.76354163  0.39620183    -0.72500
Cu205      Cu  0.93214855  0.82692654  0.37110874     1.04600
Cu206      Cu  0.96402092  0.79037888  0.39219835     1.04300
C207        C  0.89789367  0.77252014  0.38801650     0.93800
C208        C  0.99760341  0.84581842  0.37515240     0.93000
C209        C  0.96040860  0.77748677  0.34279939     0.85100
C210        C  0.93449747  0.83826722  0.42091265     0.91400
O211        O  0.26715204  0.08211217  0.40363760    -0.72400
O212        O  0.22081998  0.99929116  0.39516194    -0.73400
O213        O  0.25543520  0.04158909  0.36543819    -0.62000
O214        O  0.23358234  0.04022801  0.43334567    -0.70400
O215        O  0.18953278  0.06724439  0.42608668    -0.69900
O216        O  0.21093282  0.06751027  0.35757915    -0.61200
O217        O  0.17689529  0.02645426  0.38790824    -0.73700
O218        O  0.22274941  0.10817208  0.39563925    -0.72500
Cu219      Cu  0.24576733  0.03979425  0.39964073     1.04600
Cu220      Cu  0.19846390  0.06816909  0.39152751     1.04300
C221        C  0.25211948  0.10817670  0.40083588     0.93800
C222        C  0.19125815  0.99998527  0.39038040     0.93000
C223        C  0.23702077  0.05526682  0.35083214     0.85100
C224        C  0.20851880  0.05392532  0.44052460     0.91400
C225        C  0.07563745  0.89319389  0.38118999     0.19200
C226        C  0.10610480  0.88825446  0.39043225    -0.18800
C227        C  0.12869996  0.91260514  0.39024179    -0.11100
C228        C  0.12114101  0.94254078  0.38078713     0.21500
C229        C  0.09090408  0.94723585  0.37129839    -0.20500
C230        C  0.06842814  0.92314085  0.37158697    -0.11300
C231        C  0.14256075  0.97045838  0.38179054    -0.15500
C232        C  0.17327880  0.97004111  0.38814178    -0.29300
C233        C  0.05135259  0.86762023  0.38323336    -0.03600
C234        C  0.02398509  0.86799650  0.37117359    -0.40100
H235        H  0.11228240  0.86562317  0.39819378     0.12700
H236        H  0.15152844  0.90804418  0.39808176     0.12300
H237        H  0.08422936  0.97009557  0.36412028     0.11700
H238        H  0.04516774  0.92886505  0.36500118     0.12000
H239        H  0.13193213  0.99316789  0.37728133     0.14700
H240        H  0.18531253  0.94794969  0.39210746     0.13500
H241        H  0.05568300  0.84849456  0.39557156     0.11200
H242        H  0.01952429  0.88627072  0.35828831     0.13200
C243        C  0.31008982  0.05581396  0.24805238     0.19200
C244        C  0.27756175  0.05251762  0.25239197    -0.18800
C245        C  0.26592391  0.05197614  0.27517714    -0.11100
C246        C  0.28670671  0.05449510  0.29424359     0.21500
C247        C  0.31922286  0.05781596  0.28989062    -0.20500
C248        C  0.33083025  0.05856713  0.26711581    -0.11300
C249        C  0.27586684  0.05196339  0.31884012    -0.15500
C250        C  0.24598847  0.05745627  0.32597931    -0.29300
C251        C  0.32148347  0.05447829  0.22355601    -0.03600
C252        C  0.34943836  0.06620452  0.21627255    -0.40100
H253        H  0.26106429  0.05001304  0.23806113     0.12700
H254        H  0.24082616  0.04860040  0.27770410     0.12300
H255        H  0.33582704  0.05947880  0.30422266     0.11700
H256        H  0.35610299  0.06030955  0.26462634     0.12000
H257        H  0.29373174  0.04623289  0.33184356     0.14700
H258        H  0.22804289  0.06526708  0.31369713     0.13500
H259        H  0.30557511  0.04419110  0.21077321     0.11200
H260        H  0.36490088  0.07849467  0.22829989     0.13200
C261        C  0.51800566  0.89824344  0.15643067     0.19200
C262        C  0.51589591  0.92378832  0.17187059    -0.18800
C263        C  0.48976765  0.94413827  0.17141698    -0.11100
C264        C  0.46524201  0.93983526  0.15510285     0.21500
C265        C  0.46680348  0.91367150  0.14013300    -0.20500
C266        C  0.49295509  0.89315399  0.14066197    -0.11300
C267        C  0.43837074  0.96270150  0.15291251    -0.15500
C268        C  0.44150878  0.99349458  0.15846683    -0.29300
C269        C  0.54762313  0.87903644  0.15631842    -0.03600
C270        C  0.54972315  0.84947118  0.14775166    -0.40100
H271        H  0.53471503  0.92818725  0.18426718     0.12700
H272        H  0.48899916  0.96325722  0.18386680     0.12300
H273        H  0.44823753  0.90970377  0.12745770     0.11700
H274        H  0.49390563  0.87413911  0.12813408     0.12000
H275        H  0.41647131  0.95465497  0.14498108     0.14700
H276        H  0.46413275  0.00212291  0.16471335     0.13500
H277        H  0.56870323  0.88987988  0.16362846     0.11200
H278        H  0.52876148  0.83754566  0.14132710     0.13200
C279        C  0.27595980  0.25666686  0.12770791     0.19200
C280        C  0.26186279  0.23054443  0.13883913    -0.18800
C281        C  0.27685919  0.20085912  0.13917792    -0.11100
C282        C  0.30628935  0.19677636  0.12826735     0.21500
C283        C  0.31971789  0.22250699  0.11640024    -0.20500
C284        C  0.30466584  0.25197305  0.11586612    -0.11300
C285        C  0.32539800  0.16740032  0.13076056    -0.15500
C286        C  0.31372578  0.13825374  0.13501427    -0.29300
C287        C  0.26031532  0.28833559  0.12907411    -0.03600
C288        C  0.27535215  0.31593356  0.12484922    -0.40100
H289        H  0.23962485  0.23334641  0.14792184     0.12700
H290        H  0.26605662  0.18165642  0.14879286     0.12300
H291        H  0.34229540  0.21991866  0.10773962     0.11700
H292        H  0.31586709  0.27086288  0.10623440     0.12000
H293        H  0.35084487  0.17010205  0.12892456     0.14700
H294        H  0.28839311  0.13417829  0.13538214     0.13500
H295        H  0.23581096  0.28900975  0.13472125     0.11200
H296        H  0.30009465  0.31614871  0.12001871     0.13200
C297        C  0.83672771  0.72095318  0.12440965     0.19200
C298        C  0.80870601  0.70379230  0.12773968    -0.18800
C299        C  0.77971741  0.71922671  0.12991027    -0.11100
C300        C  0.77788747  0.75245232  0.12855363     0.21500
C301        C  0.80586004  0.76974056  0.12507156    -0.20500
C302        C  0.83505150  0.75421486  0.12296079    -0.11300
C303        C  0.74754612  0.76971982  0.13193109    -0.15500
C304        C  0.71901289  0.75616589  0.12897833    -0.29300
C305        C  0.86687462  0.70282621  0.12437263    -0.03600
C306        C  0.89596495  0.71469397  0.12038132    -0.40100
H307        H  0.80928006  0.67818559  0.12924433     0.12700
H308        H  0.75910220  0.70491850  0.13341191     0.12300
H309        H  0.80515926  0.79538443  0.12421491     0.11700
H310        H  0.85606070  0.76842534  0.12077129     0.12000
H311        H  0.74877457  0.79454785  0.13680595     0.14700
H312        H  0.71713678  0.73199324  0.12282102     0.13500
H313        H  0.86488202  0.67781034  0.12872655     0.11200
H314        H  0.89934641  0.73922484  0.11533939     0.13200
C315        C  0.96198327  0.71039861  0.23829627     0.19200
C316        C  0.95929369  0.69565950  0.26013275    -0.18800
C317        C  0.95805648  0.71375866  0.28052019    -0.11100
C318        C  0.95894082  0.74709894  0.27941406     0.21500
C319        C  0.96100945  0.76180453  0.25756487    -0.20500
C320        C  0.96270595  0.74374971  0.23725707    -0.11300
C321        C  0.95557886  0.76721389  0.30047589    -0.15500
C322        C  0.96593463  0.75833086  0.32167938    -0.29300
C323        C  0.96244461  0.69077263  0.21677065    -0.03600
C324        C  0.97791788  0.70007748  0.19751716    -0.40100
H325        H  0.95815095  0.67007246  0.26141114     0.12700
H326        H  0.95547133  0.70163389  0.29702167     0.12300
H327        H  0.96116892  0.78741766  0.25619277     0.11700
H328        H  0.96365439  0.75604412  0.22072708     0.12000
H329        H  0.94467582  0.79039461  0.29831710     0.14700
H330        H  0.97853106  0.73604696  0.32379739     0.13500
H331        H  0.95007877  0.66823206  0.21685460     0.11200
H332        H  0.99177612  0.72170237  0.19797277     0.13200
C333        C  0.14407083  0.52487421  0.14705940     0.19200
C334        C  0.12043982  0.52877859  0.16385493    -0.18800
C335        C  0.09999022  0.55476320  0.16295006    -0.11100
C336        C  0.10226183  0.57715722  0.14482360     0.21500
C337        C  0.12690643  0.57418854  0.12869094    -0.20500
C338        C  0.14756178  0.54820388  0.12967571    -0.11300
C339        C  0.07815886  0.60253779  0.14155096    -0.15500
C340        C  0.04785990  0.59812682  0.14775166    -0.29300
C341        C  0.16251473  0.49488165  0.14715919    -0.03600
C342        C  0.19095469  0.49130490  0.13706230    -0.40100
H343        H  0.11740303  0.51130186  0.17752220     0.12700
H344        H  0.08209431  0.55689650  0.17626067     0.12300
H345        H  0.12925887  0.59120118  0.11464514     0.11700
H346        H  0.16514843  0.54577465  0.11618823     0.12000
H347        H  0.08465980  0.62377806  0.13196284     0.14700
H348        H  0.04084615  0.57594276  0.15582317     0.13500
H349        H  0.15194516  0.47467165  0.15595083     0.11200
H350        H  0.20287212  0.51143909  0.12926234     0.13200
C351        C  0.81042971  0.74657024  0.38868365     0.19200
C352        C  0.80882119  0.71328757  0.38970977    -0.18800
C353        C  0.77944137  0.69805420  0.39101034    -0.11100
C354        C  0.75124062  0.71587605  0.39129974     0.21500
C355        C  0.75306796  0.74902230  0.39073869    -0.20500
C356        C  0.78225978  0.76415847  0.38921464    -0.11300
C357        C  0.71941604  0.70119465  0.39236333    -0.20300
C358        C  0.71278885  0.67189199  0.38464274    -0.29300
C359        C  0.84054308  0.76408404  0.38577540    -0.03600
C360        C  0.86938232  0.75288941  0.39160793    -0.40100
H361        H  0.83001886  0.69894330  0.38897583     0.12700
H362        H  0.77896587  0.67245411  0.39191925     0.12300
H363        H  0.73174713  0.76330358  0.39104996     0.11700
H364        H  0.78281629  0.78980958  0.38837715     0.12000
H365        H  0.70014600  0.71605993  0.39845645     0.14700
H366        H  0.73125410  0.65705863  0.37740389     0.13500
H367        H  0.83859582  0.78810763  0.37900179     0.11200
H368        H  0.87212345  0.72968698  0.39956507     0.13200
C369        C  0.62308192  0.69325049  0.27899310     0.19200
C370        C  0.65031577  0.70082390  0.26627889    -0.18800
C371        C  0.64787866  0.71676108  0.24496051    -0.11100
C372        C  0.61803927  0.72456697  0.23568094     0.21500
C373        C  0.59077596  0.71617740  0.24807178    -0.20500
C374        C  0.59324580  0.70106801  0.26972622    -0.11300
C375        C  0.61494878  0.74006226  0.21260639    -0.15500
C376        C  0.63388165  0.76399270  0.20604811    -0.29300
C377        C  0.62629449  0.67615625  0.30144564    -0.03600
C378        C  0.60865843  0.68336916  0.32011645    -0.40100
H379        H  0.67351858  0.69465698  0.27298228     0.12700
H380        H  0.66925842  0.72231345  0.23546949     0.12300
H381        H  0.56756353  0.72159148  0.24106451     0.11700
H382        H  0.57185988  0.69485165  0.27897070     0.12000
H383        H  0.59612263  0.73224099  0.20108619     0.14700
H384        H  0.65107404  0.77339270  0.21828470     0.13500
H385        H  0.64505717  0.65862287  0.30309973     0.11200
H386        H  0.59193880  0.70292774  0.31921225     0.13200
C387        C  0.29812234  0.25867925  0.39998962     0.19200
C388        C  0.31694273  0.23130811  0.40146854    -0.18800
C389        C  0.30327582  0.20127340  0.40176122    -0.11100
C390        C  0.27021894  0.19789066  0.40059092     0.21500
C391        C  0.25135650  0.22532414  0.39921918    -0.20500
C392        C  0.26508752  0.25544771  0.39891716    -0.11300
C393        C  0.25442774  0.16647710  0.39961491    -0.15500
C394        C  0.26903401  0.13847569  0.40337617    -0.29300
C395        C  0.31435355  0.28963850  0.39793980    -0.03600
C396        C  0.30076998  0.31830714  0.40083313    -0.40100
H397        H  0.34249843  0.23313094  0.40204525     0.12700
H398        H  0.31894693  0.18105339  0.40231919     0.12300
H399        H  0.22585152  0.22344181  0.39804110     0.11700
H400        H  0.24979356  0.27588935  0.39718661     0.12000
H401        H  0.22935615  0.16647426  0.39536213     0.14700
H402        H  0.29378264  0.13726381  0.40819324     0.13500
H403        H  0.33940922  0.28855586  0.39380585     0.11200
H404        H  0.27623612  0.32058589  0.40600676     0.13200
C405        C  0.27615084  0.39439313  0.23934149     0.19200
C406        C  0.25889380  0.39427954  0.26012316    -0.18800
C407        C  0.27449215  0.39366696  0.28163817    -0.11100
C408        C  0.30778332  0.39275731  0.28277234     0.21500
C409        C  0.32497365  0.39177766  0.26199610    -0.20500
C410        C  0.30940909  0.39271978  0.24050767    -0.11300
C411        C  0.32510020  0.39153949  0.30531487    -0.15500
C412        C  0.31395225  0.40538734  0.32462460    -0.29300
C413        C  0.25900680  0.39511011  0.21670147    -0.03600
C414        C  0.27165160  0.40820192  0.19752805    -0.40100
H415        H  0.23327397  0.39489766  0.25970620     0.12700
H416        H  0.26041163  0.39327854  0.29731226     0.12300
H417        H  0.35056512  0.39044822  0.26239448     0.11700
H418        H  0.32349882  0.39149306  0.22486983     0.12000
H419        H  0.34794625  0.37969215  0.30585679     0.14700
H420        H  0.29203878  0.41883376  0.32382539     0.13500
H421        H  0.23537434  0.38507757  0.21589877     0.11200
H422        H  0.29456520  0.41967998  0.19858734     0.13200
C423        C  0.48934426  0.56458133  0.37329722     0.19200
C424        C  0.47918153  0.54453605  0.35542505    -0.18800
C425        C  0.45192197  0.52633176  0.35801838    -0.11100
C426        C  0.43452873  0.52726326  0.37882627     0.21500
C427        C  0.44337795  0.54886173  0.39611251    -0.20500
C428        C  0.47068557  0.56728074  0.39347514    -0.11300
C429        C  0.40918712  0.50377118  0.38352674    -0.15500
C430        C  0.41263814  0.47371262  0.37638557    -0.29300
C431        C  0.52095540  0.57957152  0.37116799    -0.03600
C432        C  0.52983249  0.60540256  0.38305603    -0.40100
H433        H  0.49292130  0.54223104  0.33964891     0.12700
H434        H  0.44508287  0.51068415  0.34401341     0.12300
H435        H  0.43026633  0.55008653  0.41223833     0.11700
H436        H  0.47796521  0.58212847  0.40779811     0.12000
H437        H  0.38949526  0.51020055  0.39465695     0.14700
H438        H  0.43387871  0.46708506  0.36697523     0.13500
H439        H  0.53779241  0.56852638  0.35945379     0.11200
H440        H  0.51292404  0.61796970  0.39379027     0.13200
C441        C  0.42370677  0.08563027  0.04179313     0.19200
C442        C  0.45045004  0.10186012  0.03364590    -0.18800
C443        C  0.45576190  0.10560874  0.00977882    -0.11100
C444        C  0.43408211  0.09347637  0.99344137     0.21500
C445        C  0.40776465  0.07664190  0.00157635    -0.20500
C446        C  0.40242979  0.07293477  0.02539687    -0.11300
C447        C  0.43726950  0.09846844  0.96790247    -0.15500
C448        C  0.45491546  0.12155229  0.95835394    -0.29300
C449        C  0.41816635  0.08381125  0.06736591    -0.03600
C450        C  0.39741180  0.06384812  0.07735537    -0.40100
H451        H  0.46728169  0.11182708  0.04582115     0.12700
H452        H  0.47686942  0.11796319  0.00436313     0.12300
H453        H  0.39067762  0.06705328  0.98942758     0.11700
H454        H  0.38107617  0.06093495  0.03065609     0.12000
H455        H  0.42261595  0.08404675  0.95656431     0.14700
H456        H  0.46881674  0.13718665  0.96923161     0.13500
H457        H  0.43162111  0.09975155  0.07840081     0.11200
H458        H  0.38435779  0.04697678  0.06694103     0.13200
C459        C  0.64456857  0.83233036  0.03104534     0.19200
C460        C  0.62778615  0.81978677  0.01214614    -0.18800
C461        C  0.63560409  0.82827338  0.98935804    -0.11100
C462        C  0.66060305  0.84947045  0.98503228     0.21500
C463        C  0.67768242  0.86159827  0.00393190    -0.20500
C464        C  0.66982057  0.85318292  0.02668790    -0.11300
C465        C  0.67096877  0.85793094  0.96117160    -0.15500
C466        C  0.65266122  0.85489229  0.94214877    -0.29300
C467        C  0.63651094  0.82161975  0.05491418    -0.03600
C468        C  0.64345494  0.83850385  0.07402767    -0.40100
H469        H  0.60868478  0.80316709  0.01502302     0.12700
H470        H  0.62256784  0.81743374  0.97529858     0.12300
H471        H  0.69744002  0.87744138  0.00107015     0.11700
H472        H  0.68421291  0.86236846  0.04068578     0.12000
H473        H  0.69484665  0.86706547  0.95923048     0.14700
H474        H  0.62835211  0.84700335  0.94360178     0.13500
H475        H  0.62468964  0.79890688  0.05678384     0.11200
H476        H  0.65413078  0.86176530  0.07248124     0.13200
C477        C  0.57739353  0.05904291  0.87479383     0.19200
C478        C  0.60127751  0.05130150  0.89088839    -0.18800
C479        C  0.61903878  0.02335339  0.88837953    -0.11100
C480        C  0.61331119  0.00286678  0.86953387     0.21500
C481        C  0.59077350  0.01173209  0.85278669    -0.20500
C482        C  0.57329658  0.03959256  0.85520390    -0.11300
C483        C  0.62785053  0.97083820  0.86767133    -0.15500
C484        C  0.65529325  0.96210188  0.87776777    -0.29300
C485        C  0.55526434  0.08581800  0.87946162    -0.03600
C486        C  0.52442621  0.08317057  0.87400313    -0.40100
H487        H  0.60503613  0.06598249  0.90605165     0.12700
H488        H  0.63596246  0.01715147  0.90180113     0.12300
H489        H  0.58608950  0.99660210  0.83800056     0.11700
H490        H  0.55591849  0.04541915  0.84198823     0.12000
H491        H  0.61511695  0.95349647  0.85733356     0.14700
H492        H  0.66946082  0.97930159  0.88711124     0.13500
H493        H  0.56352275  0.10618271  0.88923032     0.11200
H494        H  0.51607361  0.06134181  0.86617199     0.13200
C495        C  0.63883054  0.59248828  0.48976839     0.19200
C496        C  0.62533154  0.60497011  0.51006733    -0.18800
C497        C  0.63427009  0.59361926  0.53206339    -0.11100
C498        C  0.65713047  0.56947195  0.53423404     0.21500
C499        C  0.67017738  0.55661831  0.51392024    -0.20500
C500        C  0.66123484  0.56791557  0.49197117    -0.11300
C501        C  0.67047299  0.55918243  0.55706273    -0.15500
C502        C  0.65744149  0.56521463  0.57796910    -0.29300
C503        C  0.63073310  0.60729115  0.46690960    -0.03600
C504        C  0.63630580  0.59355267  0.44620930    -0.40100
H505        H  0.60827178  0.62411505  0.50893127     0.12700
H506        H  0.62411891  0.60476062  0.54719509     0.12300
H507        H  0.68811787  0.53828680  0.51504343     0.11700
H508        H  0.67297940  0.55810964  0.47696568     0.12000
H509        H  0.69298259  0.54669086  0.55656499     0.14700
H510        H  0.63441486  0.57643114  0.57922709     0.13500
H511        H  0.61989826  0.63066954  0.46718066     0.11200
H512        H  0.64572194  0.56967328  0.44537560     0.13200
C513        C  0.41723864  0.36206302  0.48889148     0.19200
C514        C  0.43032233  0.33270392  0.49525516    -0.18800
C515        C  0.43549450  0.32500924  0.51865381    -0.11100
C516        C  0.42815932  0.34683640  0.53634654     0.21500
C517        C  0.41565077  0.37644733  0.52994750    -0.20500
C518        C  0.41049078  0.38414530  0.50653255    -0.11300
C519        C  0.43201757  0.33913787  0.56155514    -0.15500
C520        C  0.45138574  0.31613564  0.56945847    -0.29300
C521        C  0.41012806  0.36829187  0.46385062    -0.03600
C522        C  0.38784441  0.38904048  0.45681187    -0.40100
H523        H  0.43571164  0.31522637  0.48209297     0.12700
H524        H  0.44432038  0.30156568  0.52267638     0.12300
H525        H  0.40985658  0.39375166  0.54313940     0.11700
H526        H  0.40133020  0.40744924  0.50243922     0.12000
H527        H  0.41861753  0.35301896  0.57400495     0.14700
H528        H  0.46592882  0.30290316  0.55740376     0.13500
H529        H  0.42168331  0.35354236  0.45094837     0.11200
H530        H  0.37469964  0.40256282  0.46954751     0.13200
C531        C  0.45661985  0.21179815  0.78833315     0.19200
C532        C  0.48177254  0.22842472  0.77818865    -0.18800
C533        C  0.47845421  0.24233577  0.75622370    -0.11100
C534        C  0.44963818  0.24033945  0.74405979     0.21500
C535        C  0.42417135  0.22440666  0.75439758    -0.20500
C536        C  0.42764815  0.21000936  0.77626173    -0.11300
C537        C  0.44568376  0.25506483  0.72073649    -0.15500
C538        C  0.46906501  0.25467025  0.70498295    -0.29300
C539        C  0.46094116  0.19846674  0.81208282    -0.03600
C540        C  0.44477288  0.17339209  0.82031983    -0.40100
H541        H  0.50413062  0.23061449  0.78729454     0.12700
H542        H  0.49827645  0.25514665  0.74895583     0.12300
H543        H  0.40164385  0.22287491  0.74544018     0.11700
H544        H  0.40744218  0.19824095  0.78387202     0.12000
H545        H  0.42257149  0.26430553  0.71583981     0.14700
H546        H  0.49108763  0.24249820  0.70904219     0.13500
H547        H  0.47862885  0.20956416  0.82311023     0.11200
H548        H  0.42815261  0.16096817  0.80921298     0.13200
C549        C  0.63025706  0.42015165  0.65090816     0.19200
C550        C  0.60914910  0.41203019  0.66871085    -0.18800
C551        C  0.58843198  0.38660190  0.66612269    -0.11100
C552        C  0.58809613  0.36889442  0.64547179     0.21500
C553        C  0.61036918  0.37577524  0.62815806    -0.20500
C554        C  0.63116189  0.40135033  0.63072712    -0.11300
C555        C  0.56360937  0.34439372  0.64129584    -0.15500
C556        C  0.53376714  0.34860733  0.64866805    -0.29300
C557        C  0.64804692  0.45029893  0.65307375    -0.03600
C558        C  0.67380422  0.45786582  0.64055465    -0.40100
H559        H  0.60805342  0.42599773  0.68445931     0.12700
H560        H  0.57220803  0.38124126  0.68011421     0.12300
H561        H  0.61061381  0.36234295  0.61214558     0.11700
H562        H  0.64667463  0.40716183  0.61643099     0.12000
H563        H  0.56947440  0.32403117  0.63062708     0.14700
H564        H  0.52751467  0.37028707  0.65770362     0.13500
H565        H  0.63866220  0.46764463  0.66517934     0.11200
H566        H  0.68478006  0.44058362  0.62921418     0.13200
C567        C  0.75501644  0.73366463  0.89026370     0.19200
C568        C  0.78637581  0.72831687  0.89733862    -0.18800
C569        C  0.79831891  0.69756601  0.89956250    -0.11100
C570        C  0.77920357  0.67114850  0.89458093     0.21500
C571        C  0.74748419  0.67634260  0.88833984    -0.20500
C572        C  0.73545806  0.70722845  0.88613692    -0.11300
C573        C  0.79193968  0.63814938  0.89551838    -0.15500
C574        C  0.82256658  0.63194092  0.89122723    -0.29300
C575        C  0.74388535  0.76713912  0.88813350    -0.03600
C576        C  0.71674938  0.77624670  0.87769853    -0.40100
H577        H  0.80184789  0.74808840  0.90110336     0.12700
H578        H  0.82251170  0.69467584  0.90538758     0.12300
H579        H  0.73209665  0.65644890  0.88477425     0.11700
H580        H  0.71087330  0.71004755  0.88137714     0.12000
H581        H  0.77563457  0.61862989  0.89823077     0.14700
H582        H  0.83831597  0.65128388  0.88675551     0.13500
H583        H  0.75916390  0.78533423  0.89534168     0.11200
H584        H  0.70109084  0.75893840  0.86994403     0.13200
C585        C  0.93219071  0.57846922  0.98539552     0.19200
C586        C  0.94753410  0.60670686  0.99144122    -0.18800
C587        C  0.95338270  0.61419019  0.01477878    -0.11100
C588        C  0.94448592  0.59323969  0.03278848     0.21500
C589        C  0.92991419  0.56457381  0.02667817    -0.20500
C590        C  0.92402375  0.55711985  0.00331892    -0.11300
C591        C  0.94832532  0.60126153  0.05799377    -0.15500
C592        C  0.96851777  0.62351823  0.06574504    -0.29300
C593        C  0.92430221  0.57258463  0.96040067    -0.03600
C594        C  0.89959359  0.55463401  0.95383363    -0.40100
H595        H  0.95410706  0.62359859  0.97807480     0.12700
H596        H  0.96387699  0.63693335  0.01849123     0.12300
H597        H  0.92286600  0.54790864  0.04006621     0.11700
H598        H  0.91307512  0.53461170  0.99944611     0.12000
H599        H  0.93371040  0.58872467  0.07051420     0.14700
H600        H  0.98410323  0.63541162  0.05360650     0.13500
H601        H  0.93747583  0.58538922  0.94717643     0.11200
H602        H  0.88500807  0.54349467  0.96701481     0.13200
C603        C  0.77353071  0.54777014  0.74039375     0.19200
C604        C  0.75964171  0.54774178  0.76251101    -0.18800
C605        C  0.77834425  0.54769642  0.78262822    -0.11100
C606        C  0.81160788  0.54783270  0.78116625     0.21500
C607        C  0.82556956  0.54877072  0.75906475    -0.20500
C608        C  0.80681696  0.54858310  0.73887812    -0.11300
C609        C  0.83194378  0.54842235  0.80245739    -0.15500
C610        C  0.82273122  0.53482436  0.82252190    -0.29300
C611        C  0.75247292  0.54852456  0.71949253    -0.03600
C612        C  0.76163477  0.53908527  0.69820988    -0.40100
H613        H  0.73413334  0.54778381  0.76425334     0.12700
H614        H  0.76658699  0.54828754  0.79930180     0.12300
H615        H  0.85107081  0.54955003  0.75741442     0.11700
H616        H  0.81852994  0.54980935  0.72221503     0.12000
H617        H  0.85473788  0.56019522  0.80158930     0.14700
H618        H  0.80065958  0.52173438  0.82293824     0.13500
H619        H  0.72833928  0.55682068  0.72182716     0.11200
H620        H  0.78525093  0.52965120  0.69567412     0.13200
C621        C  0.25301242  0.22779483  0.90167065     0.19200
C622        C  0.27422479  0.22467159  0.92038372    -0.18800
C623        C  0.30581017  0.21598790  0.91648448    -0.11100
C624        C  0.31632196  0.20952394  0.89382318     0.21500
C625        C  0.29504224  0.21255287  0.87519171    -0.20500
C626        C  0.26381650  0.22188806  0.87900797    -0.11300
C627        C  0.34759207  0.19505941  0.88933599    -0.15500
C628        C  0.37432284  0.20162206  0.90115951    -0.29300
C629        C  0.21951117  0.23661634  0.90586046    -0.03600
C630        C  0.20455444  0.25710925  0.89169028    -0.40100
H631        H  0.26631861  0.22891367  0.93799192     0.12700
H632        H  0.32153680  0.21293935  0.93122544     0.12300
H633        H  0.30247930  0.20706231  0.85764579     0.11700
H634        H  0.24783595  0.22349859  0.86428718     0.12000
H635        H  0.34848060  0.17755999  0.87551172     0.14700
H636        H  0.37510632  0.22076982  0.91369875     0.13500
H637        H  0.20759759  0.22746048  0.92118145     0.11200
H638        H  0.21772082  0.26841652  0.87774566     0.13200
C639        C  0.16085429  0.38323265  0.03423855     0.19200
C640        C  0.13567560  0.36242305  0.03018729    -0.18800
C641        C  0.12691207  0.35443148  0.00754788    -0.11100
C642        C  0.14332652  0.36700207  0.98835400     0.21500
C643        C  0.16693702  0.38963595  0.99229798    -0.20500
C644        C  0.17570062  0.39771363  0.01501526    -0.11300
C645        C  0.13699984  0.35593854  0.96427029    -0.15500
C646        C  0.12752545  0.32612198  0.96014621    -0.29300
C647        C  0.17124170  0.38836088  0.05867496    -0.03600
C648        C  0.20037777  0.39834609  0.06442585    -0.40100
H649        H  0.12330067  0.35153714  0.04461845     0.12700
H650        H  0.10750312  0.33808970  0.00518485     0.12300
H651        H  0.17938512  0.40026003  0.97779677     0.11700
H652        H  0.19424820  0.41500805  0.01732994     0.12000
H653        H  0.14222330  0.37165776  0.94977091     0.14700
H654        H  0.12425419  0.30984028  0.97460286     0.13500
H655        H  0.15508974  0.38149592  0.07247123     0.11200
H656        H  0.21735037  0.40433049  0.05102014     0.13200
C657        C  0.93089309  0.40534954  0.88821075     0.19200
C658        C  0.93881495  0.38629846  0.90748286    -0.18800
C659        C  0.96354905  0.36408069  0.90607529    -0.11100
C660        C  0.98051689  0.36042251  0.88521594     0.21500
C661        C  0.97097192  0.37787992  0.86559302    -0.20500
C662        C  0.94632915  0.39983517  0.86697283    -0.11300
C663        C  0.01063794  0.34227473  0.88376224    -0.15500
C664        C  0.01972086  0.31877266  0.89828037    -0.29300
C665        C  0.90843209  0.43241245  0.89086614    -0.03600
C666        C  0.91348865  0.45994241  0.87957867    -0.40100
H667        H  0.92711071  0.38989146  0.92399178     0.12700
H668        H  0.97045359  0.35128688  0.92162846     0.12300
H669        H  0.98343212  0.37536448  0.84926303     0.11700
H670        H  0.94006623  0.41321805  0.85152487     0.12000
H671        H  0.02682750  0.34948950  0.87007620     0.14700
H672        H  0.00356838  0.30937572  0.91119839     0.13500
H673        H  0.88970918  0.43085976  0.90371130     0.11200
H674        H  0.93406793  0.46207796  0.86842397     0.13200
C675        C  0.26677192  0.18742476  0.63849089     0.19200
C676        C  0.29594464  0.17248661  0.64291453    -0.18800
C677        C  0.32437244  0.18900338  0.64045643    -0.11100
C678        C  0.32417235  0.22090499  0.63337859     0.21500
C679        C  0.29511134  0.23571169  0.62861099    -0.20500
C680        C  0.26671720  0.21918598  0.63093766    -0.11300
C681        C  0.35327982  0.24036905  0.63263105    -0.15500
C682        C  0.38281695  0.22870990  0.63039104    -0.29300
C683        C  0.23730340  0.16889927  0.64213887    -0.03600
C684        C  0.20781719  0.18117799  0.64200217    -0.40100
H685        H  0.29674215  0.14804889  0.64874639     0.12700
H686        H  0.34623611  0.17701071  0.64485428     0.12300
H687        H  0.29435265  0.26032731  0.62319781     0.11700
H688        H  0.24504957  0.23160604  0.62682417     0.12000
H689        H  0.35005250  0.26584235  0.63416522     0.14700
H690        H  0.38681859  0.20361748  0.62757389     0.13500
H691        H  0.24019397  0.14372373  0.64564477     0.11200
H692        H  0.20367259  0.20615399  0.63885866     0.13200
C693        C  0.15957791  0.08033168  0.54896523     0.19200
C694        C  0.18096419  0.05722350  0.54117344    -0.18800
C695        C  0.18706909  0.05340315  0.51742791    -0.11100
C696        C  0.17207159  0.07295508  0.50077285     0.21500
C697        C  0.15053925  0.09590873  0.50855129    -0.20500
C698        C  0.14444360  0.09973724  0.53227057    -0.11300
C699        C  0.17791274  0.07037252  0.47524311    -0.15500
C700        C  0.20233097  0.05442932  0.46583335    -0.29300
C701        C  0.15498946  0.08419864  0.57455706    -0.03600
C702        C  0.13237699  0.10247361  0.58410000    -0.40100
H703        H  0.19305588  0.04196934  0.55354442     0.12700
H704        H  0.20330893  0.03489629  0.51239942     0.12300
H705        H  0.13864188  0.11135079  0.49620250     0.11700
H706        H  0.12834483  0.11840405  0.53719620     0.12000
H707        H  0.16200241  0.08325734  0.46368842     0.14700
H708        H  0.21939322  0.04234029  0.47683345     0.13500
H709        H  0.17158016  0.07210571  0.58605259     0.11200
H710        H  0.11525670  0.11472697  0.57327055     0.13200
C711        C  0.11187447  0.18983322  0.75321474     0.19200
C712        C  0.08408531  0.19983015  0.76428777    -0.18800
C713        C  0.08555560  0.21694299  0.78502369    -0.11100
C714        C  0.11496269  0.22497641  0.79478621     0.21500
C715        C  0.14276857  0.21516978  0.78366204    -0.20500
C716        C  0.14129449  0.19745557  0.76318062    -0.11300
C717        C  0.11722334  0.24440130  0.81612082    -0.15500
C718        C  0.09724907  0.24066811  0.83400837    -0.29300
C719        C  0.10950924  0.17453464  0.73013089    -0.03600
C720        C  0.13078896  0.15352893  0.72209647    -0.40100
H721        H  0.06118093  0.19467363  0.75671468     0.12700
H722        H  0.06373556  0.22473010  0.79300359     0.12300
H723        H  0.16567108  0.22131263  0.79082075     0.11700
H724        H  0.16315173  0.19086755  0.75471082     0.12000
H725        H  0.13727574  0.26029135  0.81795289     0.14700
H726        H  0.07924952  0.22235987  0.83335480     0.13500
H727        H  0.08948660  0.18115119  0.71922147     0.11200
H728        H  0.14968283  0.14491079  0.73330924     0.13200
C729        C  0.77260822  0.68495630  0.62227492     0.19200
C730        C  0.80465176  0.69121901  0.61818756    -0.18800
C731        C  0.81604362  0.72223064  0.61879242    -0.11100
C732        C  0.79546655  0.74767745  0.62342784     0.21500
C733        C  0.76311568  0.74163285  0.62616737    -0.20500
C734        C  0.75172614  0.71057738  0.62567014    -0.11300
C735        C  0.80713501  0.78063092  0.62562961    -0.15500
C736        C  0.83614441  0.78714418  0.63389305    -0.29300
C737        C  0.76191568  0.65150466  0.62288749    -0.03600
C738        C  0.73642786  0.64201509  0.63490398    -0.40100
H739        H  0.82107608  0.67197545  0.61500876     0.12700
H740        H  0.84093284  0.72617416  0.61562060     0.12300
H741        H  0.74671887  0.76093207  0.62924106     0.11700
H742        H  0.72662394  0.70683338  0.62788099     0.12000
H743        H  0.79089867  0.79993499  0.62165184     0.14700
H744        H  0.85181494  0.76799806  0.63920652     0.13500
H745        H  0.77647023  0.63389135  0.61422153     0.11200
H746        H  0.72242816  0.65903329  0.64455731     0.13200
C747        C  0.90566955  0.86842087  0.53265543     0.19200
C748        C  0.88775321  0.87790942  0.51317632    -0.18800
C749        C  0.89770655  0.87069216  0.49056674    -0.11100
C750        C  0.92596448  0.85372452  0.48695120     0.21500
C751        C  0.94401364  0.84462095  0.50637924    -0.20500
C752        C  0.93410298  0.85176282  0.52889553    -0.11300
C753        C  0.93641443  0.84258782  0.46365686    -0.15500
C754        C  0.92524728  0.85337187  0.44310198    -0.29300
C755        C  0.89296820  0.87469534  0.55641868    -0.03600
C756        C  0.90952138  0.87003065  0.57622695    -0.40100
H757        H  0.86560630  0.89046811  0.51546845     0.12700
H758        H  0.88265380  0.87755705  0.47616793     0.12300
H759        H  0.96568877  0.83123676  0.50416589     0.11700
H760        H  0.94853764  0.84316797  0.54309713     0.12000
H761        H  0.95411699  0.82386504  0.46352748     0.14700
H762        H  0.90838515  0.87275070  0.44239259     0.13500
H763        H  0.86862578  0.88285365  0.55765538     0.11200
H764        H  0.93401395  0.86256264  0.57574389     0.13200
C765        C  0.76434409  0.89220436  0.78124100     0.19200
C766        C  0.79731686  0.89353015  0.77867715    -0.18800
C767        C  0.81103317  0.89430023  0.75659312    -0.11100
C768        C  0.79195510  0.89374102  0.73648853     0.21500
C769        C  0.75897870  0.89379904  0.73903411    -0.20500
C770        C  0.74524880  0.89301392  0.76111677    -0.11300
C771        C  0.80549832  0.89337165  0.71265942    -0.15500
C772        C  0.83448204  0.88192512  0.70791831    -0.29300
C773        C  0.75101093  0.89023050  0.80513466    -0.03600
C774        C  0.72142723  0.88040142  0.80979965    -0.40100
H775        H  0.81259491  0.89359929  0.79384691     0.12700
H776        H  0.83651857  0.89557402  0.75541925     0.12300
H777        H  0.74373998  0.89401454  0.72384582     0.11700
H778        H  0.71974578  0.89330577  0.76218589     0.12000
H779        H  0.79045776  0.90127162  0.69839187     0.14700
H780        H  0.84926061  0.87245692  0.72176693     0.13500
H781        H  0.76671111  0.89576909  0.81956262     0.11200
H782        H  0.70557514  0.87350285  0.79587216     0.13200
C783        C  0.99842564  0.04999425  0.66115432     0.19200
C784        C  0.97580164  0.04690981  0.64342663    -0.18800
C785        C  0.95397408  0.02203578  0.64394498    -0.11100
C786        C  0.95419174  0.00013449  0.66248722     0.21500
C787        C  0.97560244  0.00449266  0.68087503    -0.20500
C788        C  0.99740965  0.02923533  0.68030798    -0.11300
C789        C  0.93541242  0.97052915  0.66204198    -0.15500
C790        C  0.90940588  0.96608274  0.64892817    -0.29300
C791        C  0.02402804  0.07367116  0.65866131    -0.03600
C792        C  0.05381066  0.06701252  0.66535058    -0.40100
H793        H  0.97611411  0.06274500  0.62854904     0.12700
H794        H  0.93823764  0.01916056  0.62925129     0.12300
H795        H  0.97614811  0.98805130  0.69540344     0.11700
H796        H  0.01397172  0.03162713  0.69458612     0.12000
H797        H  0.94417672  0.95094669  0.67262452     0.14700
H798        H  0.89876266  0.98557300  0.63931606     0.13500
H799        H  0.01904831  0.09549308  0.64921739     0.11200
H800        H  0.05925156  0.04408599  0.67306917     0.13200
loop_ 
_geom_bond_atom_site_label_1 
_geom_bond_atom_site_label_2 
_geom_bond_distance 
_geom_bond_site_symmetry_2 
_ccdc_geom_bond_type 
O1           Cu9   1.993       .  S
O1           C11   1.277       .  A
O2           Cu9   1.996       .  S
O2           C12   1.275       .  A
O3           Cu9   2.007       .  S
O3           C13   1.277       .  A
O4           Cu9   2.003       .  S
O4           C14   1.276       .  A
O5          Cu10   2.019       .  S
O5           C14   1.280       .  A
O6          Cu10   2.017       .  S
O6           C13   1.279       .  A
O7          Cu10   2.016       .  S
O7           C12   1.279       .  A
O8          Cu10   2.019       .  S
O8           C11   1.278       .  A
Cu9         Cu10   2.375       .  S
C11         C790   1.475       .  S
C12         C736   1.471       .  S
C13         C756   1.477       .  S
C14         C772   1.476       .  S
O15         Cu23   2.022       .  S
O15          C25   1.279       .  A
O16         Cu23   2.015       .  S
O16          C26   1.279       .  A
O17         Cu23   1.998       .  S
O17          C27   1.277       .  A
O18         Cu23   1.999       .  S
O18          C28   1.276       .  A
O19         Cu24   2.026       .  S
O19          C28   1.281       .  A
O20         Cu24   2.023       .  S
O20          C27   1.279       .  A
O21         Cu24   2.000       .  S
O21          C26   1.276       .  A
O22         Cu24   1.989       .  S
O22          C25   1.276       .  A
Cu23        Cu24   2.374       .  S
C25         C684   1.475       .  S
C26         C792   1.471       .  S
C27         C720   1.477       .  S
C28         C702   1.477       .  S
O29         Cu37   2.022       .  S
O29          C39   1.280       .  A
O30         Cu37   2.033       .  S
O30          C40   1.281       .  A
O31         Cu37   1.985       .  S
O31          C41   1.273       .  A
O32         Cu37   1.995       .  S
O32          C42   1.277       .  A
O33         Cu38   2.036       .  S
O33          C42   1.280       .  A
O34         Cu38   2.041       .  S
O34          C41   1.282       .  A
O35         Cu38   1.983       .  S
O35          C40   1.273       .  A
O36         Cu38   1.997       .  S
O36          C39   1.274       .  A
Cu37        Cu38   2.374       .  S
C39         C718   1.471       .  S
C40         C646   1.471       .  S
C41         C630   1.472       .  S
C42         C664   1.483       .  S
O43         Cu51   1.992       .  S
O43          C53   1.274       .  A
O44         Cu51   1.992       .  S
O44          C54   1.274       .  A
O45         Cu51   2.046       .  S
O45          C55   1.282       .  A
O46         Cu51   2.049       .  S
O46          C56   1.283       .  A
O47         Cu52   1.980       .  S
O47          C56   1.273       .  A
O48         Cu52   1.987       .  S
O48          C55   1.274       .  A
O49         Cu52   2.048       .  S
O49          C54   1.283       .  A
O50         Cu52   2.050       .  S
O50          C53   1.283       .  A
Cu51        Cu52   2.372       .  S
C53         C594   1.482       .  S
C54         C610   1.480       .  S
C55         C666   1.477       .  S
C56         C574   1.476       .  S
O57         Cu65   2.029       .  S
O57          C67   1.281       .  A
O58         Cu65   2.032       .  S
O58          C68   1.281       .  A
O59         Cu65   1.981       .  S
O59          C69   1.275       .  A
O60         Cu65   1.993       .  S
O60          C70   1.275       .  A
O61         Cu66   2.026       .  S
O61          C70   1.280       .  A
O62         Cu66   2.032       .  S
O62          C69   1.280       .  A
O63         Cu66   1.996       .  S
O63          C68   1.275       .  A
O64         Cu66   1.996       .  S
O64          C67   1.275       .  A
Cu65        Cu66   2.374       .  S
C67         C538   1.473       .  S
C68         C520   1.477       .  S
C69         C682   1.477       .  S
C70         C556   1.472       .  S
O71         Cu79   2.000       .  S
O71          C81   1.278       .  A
O72         Cu79   1.994       .  S
O72          C82   1.275       .  A
O73         Cu79   2.029       .  S
O73          C83   1.280       .  A
O74         Cu79   2.030       .  S
O74          C84   1.281       .  A
O75         Cu80   2.007       .  S
O75          C84   1.276       .  A
O76         Cu80   1.999       .  S
O76          C83   1.277       .  A
O77         Cu80   2.017       .  S
O77          C82   1.280       .  A
O78         Cu80   2.019       .  S
O78          C81   1.278       .  A
Cu79        Cu80   2.373       .  S
C81         C558   1.478       .  S
C82         C738   1.472       .  S
C83         C502   1.482       .  S
C84         C612   1.482       .  S
O85         Cu93   2.013       .  S
O85          C95   1.279       .  A
O86         Cu93   2.014       .  S
O86          C96   1.277       .  A
O87         Cu93   2.007       .  S
O87          C97   1.276       .  A
O88         Cu93   2.006       .  S
O88          C98   1.276       .  A
O89         Cu94   2.014       .  S
O89          C98   1.279       .  A
O90         Cu94   2.004       .  S
O90          C97   1.278       .  A
O91         Cu94   2.017       .  S
O91          C96   1.280       .  A
O92         Cu94   2.019       .  S
O92          C95   1.278       .  A
Cu93        Cu94   2.374       .  S
C95         C484   1.482       .  S
C96         C576   1.481       .  S
C97         C466   1.473       .  S
C98         C774   1.476       .  S
O99        Cu107   2.043       .  S
O99         C109   1.281       .  A
O100       Cu107   2.046       .  S
O100        C110   1.282       .  A
O101       Cu107   2.008       .  S
O101        C111   1.278       .  A
O102       Cu107   1.998       .  S
O102        C112   1.275       .  A
O103       Cu108   2.023       .  S
O103        C112   1.281       .  A
O104       Cu108   2.017       .  S
O104        C111   1.278       .  A
O105       Cu108   1.980       .  S
O105        C110   1.273       .  A
O106       Cu108   1.976       .  S
O106        C109   1.274       .  A
Cu107      Cu108   2.374       .  S
C109        C628   1.477       .  S
C110        C486   1.474       .  S
C111        C540   1.479       .  S
C112        C448   1.476       .  S
O113       Cu121   2.039       .  S
O113        C123   1.282       .  A
O114       Cu121   2.037       .  S
O114        C124   1.281       .  A
O115       Cu121   1.993       .  S
O115        C125   1.275       .  A
O116       Cu121   1.995       .  S
O116        C126   1.275       .  A
O117       Cu122   2.032       .  S
O117        C126   1.281       .  A
O118       Cu122   2.035       .  S
O118        C125   1.282       .  A
O119       Cu122   1.971       .  S
O119        C124   1.274       .  A
O120       Cu122   1.977       .  S
O120        C123   1.273       .  A
Cu121      Cu122   2.374       .  S
C123        C430   1.470       .  S
C124        C396   1.478       .  S
C125        C522   1.477       .  S
C126        C412   1.477       .  S
O127       Cu135   2.018       .  S
O127        C137   1.280       .  A
O128       Cu135   2.013       .  S
O128        C138   1.277       .  A
O129       Cu135   2.011       .  S
O129        C139   1.277       .  A
O130       Cu135   2.011       .  S
O130        C140   1.278       .  A
O131       Cu136   2.018       .  S
O131        C140   1.278       .  A
O132       Cu136   2.016       .  S
O132        C139   1.279       .  A
O133       Cu136   2.006       .  S
O133        C138   1.278       .  A
O134       Cu136   2.002       .  S
O134        C137   1.275       .  A
Cu135      Cu136   2.374       .  S
C137        C432   1.476       .  S
C138        C358   1.477       .  S
C139        C504   1.479       .  S
C140        C378   1.476       .  S
O141       Cu149   1.985       .  S
O141        C151   1.274   1_655  A
O142       Cu149   1.977       .  S
O142        C152   1.275       .  A
O143       Cu149   2.045       .  S
O143        C153   1.283       .  A
O144       Cu149   2.043       .  S
O144        C154   1.282       .  A
O145       Cu150   1.996       .  S
O145        C154   1.275       .  A
O146       Cu150   1.998       .  S
O146        C153   1.275       .  A
O147       Cu150   2.034       .  S
O147        C152   1.280       .  A
O148       Cu150   2.032   1_455  S
O148        C151   1.281       .  A
Cu149      Cu150   2.372       .  S
C151        C340   1.472       .  S
C152        C306   1.480       .  S
C153        C592   1.482       .  S
C154        C324   1.480       .  S
O155       Cu163   2.028       .  S
O155        C165   1.281       .  A
O156       Cu163   2.025       .  S
O156        C166   1.281       .  A
O157       Cu163   2.010       .  S
O157        C167   1.278       .  A
O158       Cu163   2.006       .  S
O158        C168   1.278       .  A
O159       Cu164   2.016       .  S
O159        C168   1.278       .  A
O160       Cu164   2.016       .  S
O160        C167   1.279       .  A
O161       Cu164   1.995       .  S
O161        C166   1.275       .  A
O162       Cu164   1.996       .  S
O162        C165   1.275       .  A
Cu163      Cu164   2.374       .  S
C165        C414   1.475       .  S
C166        C648   1.475       .  S
C167        C288   1.478       .  S
C168        C342   1.478       .  S
O169       Cu177   2.025       .  S
O169        C179   1.279       .  A
O170       Cu177   2.022       .  S
O170        C180   1.280       .  A
O171       Cu177   1.989       .  S
O171        C181   1.276       .  A
O172       Cu177   1.992       .  S
O172        C182   1.275       .  A
O173       Cu178   2.042       .  S
O173        C182   1.282       .  A
O174       Cu178   2.037       .  S
O174        C181   1.281       .  A
O175       Cu178   2.003       .  S
O175        C180   1.276       .  A
O176       Cu178   2.009       .  S
O176        C179   1.278       .  A
Cu177      Cu178   2.373       .  S
C179        C252   1.482       .  S
C180        C450   1.476       .  S
C181        C286   1.481       .  S
C182        C268   1.478   1_545  S
O183       Cu191   2.016       .  S
O183        C193   1.279       .  A
O184       Cu191   2.011       .  S
O184        C194   1.279       .  A
O185       Cu191   2.007       .  S
O185        C195   1.277       .  A
O186       Cu191   2.011       .  S
O186        C196   1.277       .  A
O187       Cu192   2.018       .  S
O187        C196   1.280       .  A
O188       Cu192   2.011       .  S
O188        C195   1.278       .  A
O189       Cu192   2.002       .  S
O189        C194   1.276       .  A
O190       Cu192   2.009       .  S
O190        C193   1.277       .  A
Cu191      Cu192   2.374       .  S
C193        C376   1.476       .  S
C194        C468   1.472       .  S
C195        C304   1.474       .  S
C196        C270   1.481       .  S
O197       Cu205   1.988       .  S
O197        C207   1.276       .  A
O198       Cu205   1.992       .  S
O198        C208   1.275       .  A
O199       Cu205   2.023       .  S
O199        C209   1.280       .  A
O200       Cu205   2.026       .  S
O200        C210   1.279       .  A
O201       Cu206   2.004       .  S
O201        C210   1.278       .  A
O202       Cu206   2.010       .  S
O202        C209   1.277       .  A
O203       Cu206   2.035   1_455  S
O203        C208   1.281   1_455  A
O204       Cu206   2.029       .  S
O204        C207   1.280       .  A
Cu205      Cu206   2.373       .  S
C207        C360   1.479       .  S
C208        C234   1.476   1_655  S
C209        C322   1.481       .  S
C210        C754   1.482       .  S
O211       Cu219   2.017       .  S
O211        C221   1.278       .  A
O212       Cu219   2.028   1_565  S
O212        C222   1.279       .  A
O213       Cu219   2.011       .  S
O213        C223   1.278       .  A
O214       Cu219   2.007       .  S
O214        C224   1.277       .  A
O215       Cu220   2.024       .  S
O215        C224   1.280       .  A
O216       Cu220   2.024       .  S
O216        C223   1.279       .  A
O217       Cu220   1.996       .  S
O217        C222   1.277   1_545  A
O218       Cu220   1.993       .  S
O218        C221   1.276       .  A
Cu219      Cu220   2.373       .  S
C221        C394   1.474       .  S
C222        C232   1.482       .  S
C223        C250   1.482       .  S
C224        C700   1.480       .  S
C225        C233   1.496       .  S
C225        C226   1.407       .  A
C225        C230   1.409       .  A
C226        C227   1.405       .  A
C226        H235   1.084       .  S
C227        C228   1.409       .  A
C227        H236   1.080       .  S
C228        C231   1.489       .  S
C228        C229   1.402       .  A
C229        C230   1.393       .  A
C229        H237   1.084       .  S
C230        H238   1.079       .  S
C231        H239   1.088       .  S
C231        C232   1.348       .  D
C232        H240   1.084       .  S
C233        H241   1.087       .  S
C233        C234   1.347       .  D
C234        H242   1.083       .  S
C243        C251   1.492       .  S
C243        C244   1.406       .  A
C243        C248   1.407       .  A
C244        C245   1.401       .  A
C244        H253   1.084       .  S
C245        C246   1.407       .  A
C245        H254   1.081       .  S
C246        C249   1.492       .  S
C246        C247   1.405       .  A
C247        C248   1.400       .  A
C247        H255   1.083       .  S
C248        H256   1.081       .  S
C249        H257   1.087       .  S
C249        C250   1.349       .  D
C250        H258   1.085       .  S
C251        H259   1.087       .  S
C251        C252   1.350       .  D
C252        H260   1.085       .  S
C261        C269   1.490       .  S
C261        C262   1.402       .  A
C261        C266   1.409       .  A
C262        C263   1.398       .  A
C262        H271   1.083       .  S
C263        C264   1.409       .  A
C263        H272   1.081       .  S
C264        C267   1.494       .  S
C264        C265   1.405       .  A
C265        C266   1.403       .  A
C265        H273   1.083       .  S
C266        H274   1.081       .  S
C267        H275   1.087       .  S
C267        C268   1.346       .  D
C268        H276   1.085   1_565  S
C269        H277   1.087       .  S
C269        C270   1.346       .  D
C270        H278   1.085       .  S
C279        C287   1.492       .  S
C279        C280   1.407       .  A
C279        C284   1.408       .  A
C280        C281   1.403       .  A
C280        H289   1.084       .  S
C281        C282   1.406       .  A
C281        H290   1.082       .  S
C282        C285   1.484       .  S
C282        C283   1.402       .  A
C283        C284   1.396       .  A
C283        H291   1.084       .  S
C284        H292   1.080       .  S
C285        H293   1.088       .  S
C285        C286   1.348       .  D
C286        H294   1.085       .  S
C287        H295   1.087       .  S
C287        C288   1.350       .  D
C288        H296   1.083       .  S
C297        C305   1.485       .  S
C297        C298   1.403       .  A
C297        C302   1.407       .  A
C298        C299   1.393       .  A
C298        H307   1.084       .  S
C299        C300   1.406       .  A
C299        H308   1.080       .  S
C300        C303   1.488       .  S
C300        C301   1.405       .  A
C301        C302   1.402       .  A
C301        H309   1.083       .  S
C302        H310   1.080       .  S
C303        H311   1.087       .  S
C303        C304   1.347       .  D
C304        H312   1.084       .  S
C305        H313   1.088       .  S
C305        C306   1.349       .  D
C306        H314   1.084       .  S
C315        C323   1.492       .  S
C315        C316   1.404       .  A
C315        C320   1.409       .  A
C316        C317   1.403       .  A
C316        H325   1.083       .  S
C317        C318   1.409       .  A
C317        H326   1.082       .  S
C318        C321   1.489       .  S
C318        C319   1.402       .  A
C319        C320   1.399       .  A
C319        H327   1.084       .  S
C320        H328   1.082       .  S
C321        H329   1.087       .  S
C321        C322   1.346       .  D
C322        H330   1.086       .  S
C323        H331   1.087       .  S
C323        C324   1.346       .  D
C324        H332   1.086       .  S
C333        C341   1.485       .  S
C333        C334   1.402       .  A
C333        C338   1.408       .  A
C334        C335   1.396       .  A
C334        H343   1.084       .  S
C335        C336   1.408       .  A
C335        H344   1.082       .  S
C336        C339   1.488       .  S
C336        C337   1.403       .  A
C337        C338   1.401       .  A
C337        H345   1.083       .  S
C338        H346   1.081       .  S
C339        H347   1.087       .  S
C339        C340   1.344       .  D
C340        H348   1.086       .  S
C341        H349   1.087       .  S
C341        C342   1.345       .  D
C342        H350   1.085       .  S
C351        C359   1.483       .  S
C351        C352   1.407       .  A
C351        C356   1.402       .  A
C352        C353   1.402       .  A
C352        H361   1.081       .  S
C353        C354   1.408       .  A
C353        H362   1.082       .  S
C354        C357   1.484       .  S
C354        C355   1.401       .  A
C355        C356   1.394       .  A
C355        H363   1.083       .  S
C356        H364   1.084       .  S
C357        H365   1.087       .  S
C357        C358   1.346       .  D
C358        H366   1.085       .  S
C359        H367   1.087       .  S
C359        C360   1.347       .  D
C360        H368   1.085       .  S
C369        C377   1.482       .  S
C369        C370   1.403       .  A
C369        C374   1.406       .  A
C370        C371   1.399       .  A
C370        H379   1.084       .  S
C371        C372   1.406       .  A
C371        H380   1.083       .  S
C372        C375   1.482       .  S
C372        C373   1.402       .  A
C373        C374   1.400       .  A
C373        H381   1.083       .  S
C374        H382   1.083       .  S
C375        H383   1.087       .  S
C375        C376   1.344       .  D
C376        H384   1.087       .  S
C377        H385   1.087       .  S
C377        C378   1.345       .  D
C378        H386   1.086       .  S
C387        C395   1.482       .  S
C387        C388   1.403       .  A
C387        C392   1.405       .  A
C388        C389   1.394       .  A
C388        H397   1.084       .  S
C389        C390   1.407       .  A
C389        H398   1.079       .  S
C390        C393   1.487       .  S
C390        C391   1.406       .  A
C391        C392   1.399       .  A
C391        H399   1.083       .  S
C392        H400   1.081       .  S
C393        H401   1.087       .  S
C393        C394   1.348       .  D
C394        H402   1.083       .  S
C395        H403   1.087       .  S
C395        C396   1.349       .  D
C396        H404   1.084       .  S
C405        C413   1.488       .  S
C405        C406   1.402       .  A
C405        C410   1.409       .  A
C406        C407   1.400       .  A
C406        H415   1.084       .  S
C407        C408   1.409       .  A
C407        H416   1.082       .  S
C408        C411   1.487       .  S
C408        C409   1.401       .  A
C409        C410   1.398       .  A
C409        H417   1.083       .  S
C410        H418   1.082       .  S
C411        H419   1.087       .  S
C411        C412   1.343       .  D
C412        H420   1.086       .  S
C413        H421   1.087       .  S
C413        C414   1.344       .  D
C414        H422   1.086       .  S
C423        C431   1.485       .  S
C423        C424   1.401       .  A
C423        C428   1.410       .  A
C424        C425   1.395       .  A
C424        H433   1.084       .  S
C425        C426   1.407       .  A
C425        H434   1.083       .  S
C426        C429   1.486       .  S
C426        C427   1.402       .  A
C427        C428   1.402       .  A
C427        H435   1.083       .  S
C428        H436   1.081       .  S
C429        H437   1.086       .  S
C429        C430   1.343       .  D
C430        H438   1.087       .  S
C431        H439   1.087       .  S
C431        C432   1.343       .  D
C432        H440   1.085       .  S
C441        C449   1.492       .  S
C441        C442   1.404       .  A
C441        C446   1.409       .  A
C442        C443   1.400       .  A
C442        H451   1.084       .  S
C443        C444   1.409   1_554  A
C443        H452   1.081       .  S
C444        C447   1.489       .  S
C444        C445   1.402   1_556  A
C445        C446   1.397       .  A
C445        H453   1.084   1_554  S
C446        H454   1.080       .  S
C447        H455   1.087       .  S
C447        C448   1.345       .  D
C448        H456   1.084       .  S
C449        H457   1.087       .  S
C449        C450   1.346       .  D
C450        H458   1.083       .  S
C459        C467   1.484       .  S
C459        C460   1.402       .  A
C459        C464   1.408       .  A
C460        C461   1.398   1_554  A
C460        H469   1.084       .  S
C461        C462   1.408       .  A
C461        H470   1.081       .  S
C462        C465   1.484       .  S
C462        C463   1.402   1_556  A
C463        C464   1.396       .  A
C463        H471   1.084       .  S
C464        H472   1.081       .  S
C465        H473   1.087       .  S
C465        C466   1.345       .  D
C466        H474   1.084       .  S
C467        H475   1.087       .  S
C467        C468   1.344       .  D
C468        H476   1.085       .  S
C477        C485   1.491       .  S
C477        C478   1.404       .  A
C477        C482   1.407       .  A
C478        C479   1.405       .  A
C478        H487   1.083       .  S
C479        C480   1.410       .  A
C479        H488   1.082       .  S
C480        C483   1.488   1_545  S
C480        C481   1.402       .  A
C481        C482   1.395       .  A
C481        H489   1.084   1_545  S
C482        H490   1.082       .  S
C483        H491   1.087       .  S
C483        C484   1.346       .  D
C484        H492   1.085       .  S
C485        H493   1.086       .  S
C485        C486   1.345       .  D
C486        H494   1.086       .  S
C495        C503   1.491       .  S
C495        C496   1.405       .  A
C495        C500   1.408       .  A
C496        C497   1.401       .  A
C496        H505   1.083       .  S
C497        C498   1.408       .  A
C497        H506   1.081       .  S
C498        C501   1.490       .  S
C498        C499   1.404       .  A
C499        C500   1.398       .  A
C499        H507   1.084       .  S
C500        H508   1.080       .  S
C501        H509   1.087       .  S
C501        C502   1.349       .  D
C502        H510   1.084       .  S
C503        H511   1.087       .  S
C503        C504   1.348       .  D
C504        H512   1.084       .  S
C513        C521   1.492       .  S
C513        C514   1.402       .  A
C513        C518   1.410       .  A
C514        C515   1.399       .  A
C514        H523   1.084       .  S
C515        C516   1.410       .  A
C515        H524   1.080       .  S
C516        C519   1.493       .  S
C516        C517   1.403       .  A
C517        C518   1.400       .  A
C517        H525   1.084       .  S
C518        H526   1.081       .  S
C519        H527   1.087       .  S
C519        C520   1.345       .  D
C520        H528   1.084       .  S
C521        H529   1.087       .  S
C521        C522   1.345       .  D
C522        H530   1.084       .  S
C531        C539   1.485       .  S
C531        C532   1.403       .  A
C531        C536   1.408       .  A
C532        C533   1.397       .  A
C532        H541   1.083       .  S
C533        C534   1.406       .  A
C533        H542   1.083       .  S
C534        C537   1.485       .  S
C534        C535   1.403       .  A
C535        C536   1.401       .  A
C535        H543   1.083       .  S
C536        H544   1.082       .  S
C537        H545   1.087       .  S
C537        C538   1.343       .  D
C538        H546   1.087       .  S
C539        H547   1.087       .  S
C539        C540   1.346       .  D
C540        H548   1.085       .  S
C549        C557   1.485       .  S
C549        C550   1.402       .  A
C549        C554   1.409       .  A
C550        C551   1.395       .  A
C550        H559   1.084       .  S
C551        C552   1.406       .  A
C551        H560   1.083       .  S
C552        C555   1.485       .  S
C552        C553   1.403       .  A
C553        C554   1.402       .  A
C553        H561   1.083       .  S
C554        H562   1.081       .  S
C555        H563   1.087       .  S
C555        C556   1.344       .  D
C556        H564   1.087       .  S
C557        H565   1.088       .  S
C557        C558   1.346       .  D
C558        H566   1.085       .  S
C567        C575   1.492       .  S
C567        C568   1.403       .  A
C567        C572   1.411       .  A
C568        C569   1.397       .  A
C568        H577   1.084       .  S
C569        C570   1.408       .  A
C569        H578   1.082       .  S
C570        C573   1.493       .  S
C570        C571   1.404       .  A
C571        C572   1.403       .  A
C571        H579   1.083       .  S
C572        H580   1.080       .  S
C573        H581   1.086       .  S
C573        C574   1.344       .  D
C574        H582   1.085       .  S
C575        H583   1.087       .  S
C575        C576   1.347       .  D
C576        H584   1.083       .  S
C585        C593   1.496       .  S
C585        C586   1.403       .  A
C585        C590   1.410   1_556  A
C586        C587   1.401   1_556  A
C586        H595   1.083       .  S
C587        C588   1.411       .  A
C587        H596   1.080       .  S
C588        C591   1.498       .  S
C588        C589   1.404       .  A
C589        C590   1.403       .  A
C589        H597   1.084       .  S
C590        H598   1.081   1_554  S
C591        H599   1.087       .  S
C591        C592   1.347       .  D
C592        H600   1.084       .  S
C593        H601   1.087       .  S
C593        C594   1.346       .  D
C594        H602   1.085       .  S
C603        C611   1.494       .  S
C603        C604   1.403       .  A
C603        C608   1.411       .  A
C604        C605   1.399       .  A
C604        H613   1.083       .  S
C605        C606   1.409       .  A
C605        H614   1.082       .  S
C606        C609   1.494       .  S
C606        C607   1.404       .  A
C607        C608   1.404       .  A
C607        H615   1.083       .  S
C608        H616   1.081       .  S
C609        H617   1.086       .  S
C609        C610   1.346       .  D
C610        H618   1.086       .  S
C611        H619   1.087       .  S
C611        C612   1.347       .  D
C612        H620   1.085       .  S
C621        C629   1.484       .  S
C621        C622   1.404       .  A
C621        C626   1.406       .  A
C622        C623   1.403       .  A
C622        H631   1.083       .  S
C623        C624   1.406       .  A
C623        H632   1.083       .  S
C624        C627   1.479       .  S
C624        C625   1.402       .  A
C625        C626   1.395       .  A
C625        H633   1.084       .  S
C626        H634   1.083       .  S
C627        H635   1.088       .  S
C627        C628   1.347       .  D
C628        H636   1.086       .  S
C629        H637   1.086       .  S
C629        C630   1.342       .  D
C630        H638   1.087       .  S
C639        C647   1.488       .  S
C639        C640   1.401       .  A
C639        C644   1.411       .  A
C640        C641   1.395       .  A
C640        H649   1.084       .  S
C641        C642   1.408   1_554  A
C641        H650   1.082       .  S
C642        C645   1.487       .  S
C642        C643   1.402       .  A
C643        C644   1.400   1_556  A
C643        H651   1.084       .  S
C644        H652   1.081       .  S
C645        H653   1.087       .  S
C645        C646   1.343       .  D
C646        H654   1.086       .  S
C647        H655   1.087       .  S
C647        C648   1.344       .  D
C648        H656   1.084       .  S
C657        C665   1.492       .  S
C657        C658   1.406       .  A
C657        C662   1.407       .  A
C658        C659   1.406       .  A
C658        H667   1.083       .  S
C659        C660   1.409       .  A
C659        H668   1.082       .  S
C660        C663   1.487   1_655  S
C660        C661   1.403       .  A
C661        C662   1.395       .  A
C661        H669   1.084       .  S
C662        H670   1.082       .  S
C663        H671   1.088       .  S
C663        C664   1.348       .  D
C664        H672   1.085       .  S
C665        H673   1.086       .  S
C665        C666   1.346       .  D
C666        H674   1.086       .  S
C675        C683   1.487       .  S
C675        C676   1.406       .  A
C675        C680   1.407       .  A
C676        C677   1.398       .  A
C676        H685   1.084       .  S
C677        C678   1.405       .  A
C677        H686   1.082       .  S
C678        C681   1.482       .  S
C678        C679   1.403       .  A
C679        C680   1.396       .  A
C679        H687   1.084       .  S
C680        H688   1.079       .  S
C681        H689   1.087       .  S
C681        C682   1.348       .  D
C682        H690   1.085       .  S
C683        H691   1.087       .  S
C683        C684   1.349       .  D
C684        H692   1.082       .  S
C693        C701   1.495       .  S
C693        C694   1.404       .  A
C693        C698   1.410       .  A
C694        C695   1.400       .  A
C694        H703   1.084       .  S
C695        C696   1.410       .  A
C695        H704   1.080       .  S
C696        C699   1.494       .  S
C696        C697   1.403       .  A
C697        C698   1.399       .  A
C697        H705   1.084       .  S
C698        H706   1.079       .  S
C699        H707   1.087       .  S
C699        C700   1.347       .  D
C700        H708   1.083       .  S
C701        H709   1.087       .  S
C701        C702   1.347       .  D
C702        H710   1.082       .  S
C711        C719   1.482       .  S
C711        C712   1.403       .  A
C711        C716   1.406       .  A
C712        C713   1.398       .  A
C712        H721   1.083       .  S
C713        C714   1.405       .  A
C713        H722   1.083       .  S
C714        C717   1.481       .  S
C714        C715   1.403       .  A
C715        C716   1.399       .  A
C715        H723   1.083       .  S
C716        H724   1.082       .  S
C717        H725   1.087       .  S
C717        C718   1.342       .  D
C718        H726   1.086       .  S
C719        H727   1.087       .  S
C719        C720   1.346       .  D
C720        H728   1.086       .  S
C729        C737   1.484       .  S
C729        C730   1.401       .  A
C729        C734   1.409       .  A
C730        C731   1.396       .  A
C730        H739   1.084       .  S
C731        C732   1.407       .  A
C731        H740   1.082       .  S
C732        C735   1.482       .  S
C732        C733   1.401       .  A
C733        C734   1.398       .  A
C733        H741   1.084       .  S
C734        H742   1.081       .  S
C735        H743   1.087       .  S
C735        C736   1.343       .  D
C736        H744   1.086       .  S
C737        H745   1.088       .  S
C737        C738   1.343       .  D
C738        H746   1.085       .  S
C747        C755   1.494       .  S
C747        C748   1.406       .  A
C747        C752   1.409       .  A
C748        C749   1.402       .  A
C748        H757   1.084       .  S
C749        C750   1.408       .  A
C749        H758   1.081       .  S
C750        C753   1.490       .  S
C750        C751   1.403       .  A
C751        C752   1.396       .  A
C751        H759   1.084       .  S
C752        H760   1.079       .  S
C753        H761   1.087       .  S
C753        C754   1.348       .  D
C754        H762   1.084       .  S
C755        H763   1.087       .  S
C755        C756   1.348       .  D
C756        H764   1.082       .  S
C765        C773   1.489       .  S
C765        C766   1.404       .  A
C765        C770   1.409       .  A
C766        C767   1.398       .  A
C766        H775   1.084       .  S
C767        C768   1.408       .  A
C767        H776   1.081       .  S
C768        C771   1.487       .  S
C768        C769   1.402       .  A
C769        C770   1.398       .  A
C769        H777   1.084       .  S
C770        H778   1.080       .  S
C771        H779   1.087       .  S
C771        C772   1.345       .  D
C772        H780   1.085       .  S
C773        H781   1.087       .  S
C773        C774   1.346       .  D
C774        H782   1.084       .  S
C783        C791   1.482   1_655  S
C783        C784   1.402       .  A
C783        C788   1.405       .  A
C784        C785   1.400       .  A
C784        H793   1.083       .  S
C785        C786   1.408       .  A
C785        H794   1.081       .  S
C786        C789   1.482   1_545  S
C786        C787   1.403       .  A
C787        C788   1.395       .  A
C787        H795   1.084   1_545  S
C788        H796   1.083   1_655  S
C789        H797   1.088       .  S
C789        C790   1.345       .  D
C790        H798   1.085       .  S
C791        H799   1.087       .  S
C791        C792   1.344       .  D
C792        H800   1.087       .  S
