geometry optimzed in LAMMPS
_audit_creation_date              2020-12-01 
_audit_creation_method            'lammps2cif' 
_symmetry_space_group_name_H-M    'P1' 
_symmetry_Int_Tables_number       1 
_symmetry_cell_setting            triclinic 
loop_ 
_symmetry_equiv_pos_as_xyz 
  x,y,z 
_cell_length_a                    77.21480613 
_cell_length_b                    77.15183742738665 
_cell_length_c                    43.95204180061611 
_cell_angle_alpha                 89.45982559941166 
_cell_angle_beta                  90.61614048693389 
_cell_angle_gamma                 123.05330267771456 
loop_ 
_atom_site_label 
_atom_site_type_symbol 
_atom_site_fract_x 
_atom_site_fract_y 
_atom_site_fract_z 
_atom_site_charge 
O1          O  0.23258962  0.35290235  0.32907525    -0.56800
C2          C  0.27448252  0.36361777  0.25584987     0.75900
O3          O  0.23493672  0.30186812  0.30043774    -0.57900
C4          C  0.21536624  0.33718973  0.33737209     0.75800
C5          C  0.21141053  0.33373967  0.23919830     0.78200
Cd6        Cd  0.23729573  0.33490639  0.28725213     1.37500
O7          O  0.27054645  0.36851810  0.28122396    -0.56800
O8          O  0.22046777  0.34826211  0.25830094    -0.55600
C9          C  0.25221222  0.31139341  0.31446664     0.78200
O10         O  0.21358587  0.31859475  0.24257955    -0.58000
O11         O  0.26110335  0.34596237  0.24527257    -0.56400
O12         O  0.20871072  0.32052890  0.32299583    -0.56400
O13         O  0.26189278  0.33088685  0.31507467    -0.55600
O14         O  0.11377912  0.32860814  0.99203179    -0.56800
C15         C  0.07033159  0.32298823  0.06387083     0.75900
O16         O  0.13432032  0.36319572  0.07717070    -0.57900
C17         C  0.13245173  0.34322247  0.98712714     0.75800
C18         C  0.10612391  0.37821824  0.00087295     0.78200
Cd19       Cd  0.10965816  0.34741170  0.03351798     1.37500
O20         O  0.07554186  0.31420577  0.04508860    -0.56800
O21         O  0.09948859  0.36045473  0.99009451    -0.55600
C22         C  0.13532261  0.34743221  0.08147904     0.78200
O23         O  0.11443286  0.38199216  0.02715933    -0.58000
O24         O  0.08256071  0.34230293  0.06686869    -0.56400
O25         O  0.13996092  0.35929610  0.00331009    -0.56400
O26         O  0.12463145  0.33225429  0.06392522    -0.55600
O27         O  0.35766783  0.23719660  0.42234372    -0.56800
C28         C  0.36407984  0.27953518  0.49727958     0.75900
O29         O  0.30652725  0.24123474  0.44725152    -0.57900
C30         C  0.34162082  0.22013925  0.41404891     0.75800
C31         C  0.33698553  0.21701391  0.01035228     0.78200
Cd32       Cd  0.33891180  0.24321228  0.46189408     1.37500
O33         O  0.37137861  0.27653664  0.47350097    -0.56800
O34         O  0.35313508  0.22850967  0.49377535    -0.55600
C35         C  0.31596181  0.25675434  0.42940191     0.78200
O36         O  0.32130502  0.21754215  0.50395894    -0.58000
O37         O  0.34534848  0.26619180  0.50357624    -0.56400
O38         O  0.32486467  0.21443069  0.42743294    -0.56400
O39         O  0.33534307  0.26548282  0.42722936    -0.55600
O40         O  0.31348917  0.07826989  0.21090065    -0.56800
C41         C  0.34557116  0.13421032  0.26701673     0.75900
O42         O  0.38138334  0.11742038  0.22129214    -0.57900
C43         C  0.31619463  0.07589131  0.18313529     0.75800
C44         C  0.34882715  0.14080437  0.16923078     0.78200
Cd45       Cd  0.34667101  0.11296575  0.21466994     1.37500
O46         O  0.32937237  0.11742733  0.25848631    -0.56800
O47         O  0.33405205  0.13137015  0.18779107    -0.55600
C48         C  0.37354462  0.09989386  0.23412658     0.78200
O49         O  0.36358008  0.13805020  0.17206578    -0.58000
O50         O  0.36194699  0.14018237  0.25245690    -0.56400
O51         O  0.33222530  0.09063103  0.17050788    -0.56400
O52         O  0.35415262  0.08919134  0.23710282    -0.55600
O53         O  0.61528156  0.58913676  0.38901664    -0.56800
C54         C  0.55493334  0.55663844  0.43114153     0.75900
O55         O  0.58835901  0.61826157  0.37341646    -0.57900
C56         C  0.61805499  0.58859790  0.36076037     0.75800
C57         C  0.55043359  0.55675852  0.33717610     0.78200
Cd58       Cd  0.57986095  0.58232348  0.38234522     1.37500
O59         O  0.57240738  0.55919754  0.42643118    -0.56800
O60         O  0.55842257  0.55037012  0.35568223    -0.55600
C61         C  0.58989804  0.62228658  0.40159530     0.78200
O62         O  0.55590468  0.57551240  0.33946264    -0.58000
O63         O  0.54946868  0.56586388  0.41347340    -0.56400
O64         O  0.60318816  0.58445850  0.34337984    -0.56400
O65         O  0.58666979  0.60808239  0.41973251    -0.55600
O66         O  0.44817247  0.46482551  0.08861682    -0.56800
C67         C  0.40140859  0.43130958  0.15440227     0.75900
O68         O  0.43330418  0.40515568  0.13812745    -0.57900
C69         C  0.46573267  0.46757712  0.08380409     0.75800
C70         C  0.46793708  0.46681403  0.17919957     0.78200
Cd71       Cd  0.44066462  0.44089968  0.13177324     1.37500
O72         O  0.40481306  0.43306327  0.12600444    -0.56800
O73         O  0.45972682  0.47274933  0.16029831    -0.55600
C74         C  0.43131156  0.40149125  0.10979941     0.78200
O75         O  0.46423837  0.44873311  0.17570074    -0.58000
O76         O  0.41616781  0.43487237  0.17158056    -0.56400
O77         O  0.47119373  0.45811384  0.10100800    -0.56400
O78         O  0.43424403  0.41594535  0.09244066    -0.55600
O79         O  0.90074711  0.69128964  0.50789744    -0.56800
C80         C  0.94977863  0.70209567  0.45004624     0.75900
O81         O  0.90756442  0.64151340  0.46715962    -0.57900
C82         C  0.88210422  0.67605554  0.01221301     0.75800
C83         C  0.88630703  0.67434243  0.41156131     0.78200
Cd84       Cd  0.90723462  0.67379547  0.46625540     1.37500
O85         O  0.93941971  0.70889542  0.46079397    -0.56800
O86         O  0.89965512  0.69044410  0.42563712    -0.55600
C87         C  0.91234604  0.64314438  0.49525684     0.78200
O88         O  0.88281493  0.65727666  0.42185081    -0.58000
O89         O  0.94081663  0.68270691  0.44825221    -0.56400
O90         O  0.87568670  0.66061271  0.49518559    -0.56400
O91         O  0.91393698  0.65818960  0.50935363    -0.55600
O92         O  0.78020918  0.66200984  0.17188259    -0.56800
C93         C  0.73918498  0.65273810  0.24885283     0.75900
O94         O  0.80268127  0.69762321  0.25445665    -0.57900
C95         C  0.79749330  0.67794253  0.16420998     0.75800
C96         C  0.76097026  0.70387585  0.18686615     0.78200
Cd97       Cd  0.77531981  0.68004134  0.21437974     1.37500
O98         O  0.74186101  0.64721076  0.22305039    -0.56800
O99         O  0.75161503  0.68444189  0.18460380    -0.55600
C100        C  0.80257052  0.68133014  0.26019192     0.78200
O101        O  0.77731150  0.71298290  0.20314183    -0.58000
O102        O  0.75293835  0.67072743  0.25795882    -0.56400
O103        O  0.80375653  0.69432471  0.17908348    -0.56400
O104        O  0.79012688  0.66531980  0.24498917    -0.55600
O105        O  0.68659851  0.90296653  0.24444901    -0.56800
C106        C  0.69462696  0.94592310  0.31898763     0.75900
O107        O  0.63704885  0.90737501  0.28106173    -0.57900
C108        C  0.67178059  0.88434139  0.23981186     0.75800
C109        C  0.67220998  0.88367978  0.33329725     0.78200
Cd110      Cd  0.66957028  0.90803406  0.28668499     1.37500
O111        O  0.70279252  0.94152733  0.29792455    -0.56800
O112        O  0.68759042  0.89710885  0.31796622    -0.55600
C113        C  0.64227390  0.91689274  0.25562824     0.78200
O114        O  0.65480338  0.88122386  0.32730512    -0.58000
O115        O  0.67547902  0.93337617  0.32345958    -0.56400
O116        O  0.65589823  0.87707294  0.25636989    -0.56400
O117        O  0.65974012  0.92213122  0.24522901    -0.55600
O118        O  0.66672183  0.78742978  0.07953413    -0.56800
C119        C  0.65649619  0.74714781  0.00513537     0.75900
O120        O  0.70394370  0.80870064  0.99598570    -0.57900
C121        C  0.68201944  0.80501533  0.08756374     0.75800
C122        C  0.70910951  0.76810804  0.06694634     0.78200
Cd123      Cd  0.68590663  0.78313103  0.03861432     1.37500
O124        O  0.65222479  0.75046139  0.03143483    -0.56800
O125        O  0.68968905  0.75896765  0.06807693    -0.55600
C126        C  0.68809859  0.80951615  0.99101933     0.78200
O127        O  0.71875953  0.78486566  0.05168905    -0.58000
O128        O  0.67425668  0.76027727  0.99475119    -0.56400
O129        O  0.69883113  0.81184649  0.07364792    -0.56400
O130        O  0.67277947  0.79899056  0.00833326    -0.55600
O131        O  0.00086390  0.45228998  0.42061486    -0.56800
C132        C  0.98795492  0.40679081  0.35403898     0.75900
O133        O  0.03267744  0.47372369  0.33415920    -0.57900
C134        C  0.01495247  0.47130695  0.42408775     0.75800
C135        C  0.05109517  0.44347483  0.39802210     0.78200
Cd136      Cd  0.01794426  0.44793136  0.37651594     1.37500
O137        O  0.98854994  0.41047627  0.38227550    -0.56800
O138        O  0.03930010  0.44527558  0.41544006    -0.55600
C139        C  0.01576552  0.47247870  0.32909406     0.78200
O140        O  0.04869573  0.44496154  0.36970953    -0.58000
O141        O  0.00048814  0.42180191  0.33737760    -0.56400
O142        O  0.02986761  0.47914907  0.40562652    -0.56400
O143        O  0.00057971  0.46017224  0.34568968    -0.55600
O144        O  0.02038183  0.57065898  0.08014723    -0.56800
C145        C  0.02759905  0.61548027  0.14516780     0.75900
O146        O  0.96900915  0.57322602  0.12245467    -0.57900
C147        C  0.00672903  0.55154584  0.07647245     0.75800
C148        C  0.00245570  0.55094667  0.17513283     0.78200
Cd149      Cd  0.00170559  0.57387534  0.12305297     1.37500
O150        O  0.03557985  0.60828491  0.12848682    -0.56800
O151        O  0.01847487  0.56539325  0.16217181    -0.55600
C152        C  0.97036616  0.57823980  0.09455122     0.78200
O153        O  0.98523628  0.54684469  0.16454252    -0.58000
O154        O  0.00843415  0.60386752  0.15000521    -0.56400
O155        O  0.99127127  0.54338521  0.09394145    -0.56400
O156        O  0.98534045  0.58010342  0.07999038    -0.55600
O157        O  0.91560832  0.27673313  0.22483740    -0.56800
C158        C  0.88800220  0.22028312  0.16691614     0.75900
O159        O  0.94511921  0.24351496  0.20470853    -0.57900
C160        C  0.92408531  0.27984294  0.25096424     0.75800
C161        C  0.88794953  0.21606192  0.26268254     0.78200
Cd162      Cd  0.91379305  0.24410336  0.21682565     1.37500
O163        O  0.89001409  0.23736835  0.17318151    -0.56800
O164        O  0.88288037  0.22625966  0.24639594    -0.55600
C165        C  0.95362641  0.26071028  0.19062217     0.78200
O166        O  0.90548173  0.21870611  0.25780615    -0.58000
O167        O  0.89808968  0.21507670  0.18309898    -0.56400
O168        O  0.92712365  0.26625978  0.26104958    -0.56400
O169        O  0.94391692  0.26961322  0.18966502    -0.55600
O170        O  0.77871775  0.12644752  0.42112606    -0.56800
C171        C  0.73716896  0.09743846  0.49760631     0.75900
O172        O  0.77507945  0.07304157  0.45845370    -0.57900
C173        C  0.79577942  0.12846866  0.41496166     0.75800
C174        C  0.80033565  0.13036695  0.01202711     0.78200
Cd175      Cd  0.77229489  0.10369968  0.46594940     1.37500
O176        O  0.73993764  0.10310697  0.46984509    -0.56800
O177        O  0.79142898  0.13593201  0.49326120    -0.55600
C178        C  0.75778561  0.06269764  0.44477384     0.78200
O179        O  0.79607036  0.11215137  0.50955733    -0.58000
O180        O  0.75022669  0.09439882  0.50978286    -0.56400
O181        O  0.80108042  0.11860333  0.43145153    -0.56400
O182        O  0.74748282  0.07093822  0.44237131    -0.55600
O183        O  0.41057828  0.98245943  0.39177548    -0.56800
C184        C  0.46638101  0.01125082  0.32910942     0.75900
O185        O  0.44672223  0.04722595  0.36176946    -0.57900
C186        C  0.40759252  0.99168359  0.41298875     0.75800
C187        C  0.47016018  0.01578059  0.42473949     0.78200
Cd188      Cd  0.44395399  0.01449502  0.37730108     1.37500
O189        O  0.44912693  0.99538871  0.33723958    -0.56800
O190        O  0.45777549  0.99965862  0.40970266    -0.55600
C191        C  0.43096676  0.03774671  0.34431379     0.78200
O192        O  0.47077271  0.03220998  0.41791590    -0.58000
O193        O  0.47246617  0.02806345  0.34267796    -0.56400
O194        O  0.42119024  0.01071815  0.41688588    -0.56400
O195        O  0.42169487  0.01823668  0.34304946    -0.55600
O196        O  0.57003238  0.02639463  0.17227674    -0.56800
C197        C  0.61518761  0.03932426  0.10514727     0.75900
O198        O  0.57593918  0.97692764  0.12739065    -0.57900
C199        C  0.55201320  0.01092383  0.17811974     0.75800
C200        C  0.54965283  0.00868546  0.08284840     0.78200
Cd201      Cd  0.57540524  0.00897043  0.13026111     1.37500
O202        O  0.61086073  0.04156039  0.13202475    -0.56800
O203        O  0.56159337  0.02446799  0.09874584    -0.55600
C204        C  0.58136880  0.97788286  0.15500697     0.78200
O205        O  0.54914162  0.99228128  0.08902503    -0.58000
O206        O  0.60165090  0.02325483  0.09113452    -0.56400
O207        O  0.54513284  0.99501346  0.16179472    -0.56400
O208        O  0.58384579  0.99282341  0.17041016    -0.55600
O209        O  0.13177483  0.78233619  0.33699928    -0.56800
C210        C  0.08827756  0.73433524  0.26783258     0.75900
O211        O  0.07414680  0.77343953  0.31266362    -0.57900
C212        C  0.13288111  0.79896250  0.34359893     0.75800
C213        C  0.12738342  0.79820757  0.24702255     0.78200
Cd214      Cd  0.10482248  0.77302530  0.29772433     1.37500
O215        O  0.10426338  0.74131125  0.28463083    -0.56800
O216        O  0.13272847  0.78786117  0.26228757    -0.55600
C217        C  0.07010625  0.76098216  0.33473156     0.78200
O218        O  0.11104583  0.79713288  0.25520847    -0.58000
O219        O  0.08028241  0.74494105  0.26607092    -0.56400
O220        O  0.12141062  0.80309195  0.32877905    -0.56400
O221        O  0.08188547  0.75444486  0.33869821    -0.55600
O222        O  0.23628066  0.88980398  0.08962440    -0.56800
C223        C  0.28612713  0.93006802  0.02802460     0.75900
O224        O  0.22096840  0.90709114  0.00268286    -0.57900
C225        C  0.21843827  0.88648981  0.09386185     0.75800
C226        C  0.25236597  0.95132322  0.07584980     0.78200
Cd227      Cd  0.24459914  0.91463698  0.04707221     1.37500
O228        O  0.27518325  0.91208682  0.03948815    -0.56800
O229        O  0.25386474  0.93767996  0.08954777    -0.55600
C230        C  0.22131379  0.89150785  0.99460276     0.78200
O231        O  0.24674264  0.94802525  0.04805035    -0.58000
O232        O  0.27827325  0.94075167  0.02697134    -0.56400
O233        O  0.21308734  0.89603102  0.07664666    -0.56400
O234        O  0.23267207  0.88755518  0.00994329    -0.55600
C235        C  0.16556707  0.82573099  0.19004247     0.21400
C236        C  0.18441488  0.83309180  0.17535951    -0.38500
C237        C  0.18984864  0.84830602  0.15308432     0.20400
C238        C  0.17728318  0.85540599  0.14572991     0.23000
C239        C  0.15834077  0.84795300  0.16033044    -0.39000
C240        C  0.15302695  0.83290578  0.18293094     0.21800
N241        N  0.15764871  0.81220231  0.21319298    -0.32300
C242        C  0.14003051  0.81082368  0.22117197    -0.09800
C243        C  0.13648630  0.82339695  0.20268155    -0.28600
N244        N  0.18601708  0.86998984  0.12394367    -0.45200
C245        C  0.20427719  0.87223087  0.11741705    -0.04500
C246        C  0.20726800  0.85901872  0.13523122    -0.21900
H247        H  0.19432500  0.82767120  0.18131033     0.19900
H248        H  0.14867813  0.85375087  0.15492244     0.18700
H249        H  0.12391156  0.82573058  0.20410385     0.15000
H250        H  0.22031093  0.85736319  0.13497902     0.14900
H251        H  0.16416493  0.80478178  0.22352789     0.33000
H252        H  0.17992519  0.87794831  0.11409274     0.35800
C253        C  0.17104650  0.82860385  0.40039727     0.21400
C254        C  0.18772232  0.83447851  0.42017686    -0.38500
C255        C  0.19473811  0.85262810  0.43678969     0.20400
C256        C  0.18590755  0.86410464  0.43391351     0.23000
C257        C  0.16928557  0.85825302  0.41410641    -0.39000
C258        C  0.16226099  0.84012070  0.39756813     0.21800
N259        N  0.16149866  0.81203873  0.38196709    -0.32300
C260        C  0.14668230  0.81324440  0.36724923    -0.09800
C261        C  0.14662619  0.83043733  0.37649583    -0.28600
N262        N  0.19483426  0.88022060  0.45315968    -0.45200
C263        C  0.20934850  0.87886630  0.46852355    -0.04500
C264        C  0.20982545  0.86196009  0.45881832    -0.21900
H265        H  0.19458449  0.82549249  0.42269412     0.19900
H266        H  0.16221570  0.86706267  0.41191551     0.18700
H267        H  0.13662037  0.83533195  0.36853171     0.15000
H268        H  0.21940944  0.85675541  0.46756602     0.14900
H269        H  0.16503730  0.80087225  0.37920214     0.33000
H270        H  0.19080430  0.89097822  0.45641999     0.35800
C271        C  0.33623497  0.96072145  0.49624636     0.21400
C272        C  0.35405059  0.97920100  0.48686548    -0.38500
C273        C  0.36635861  0.97714883  0.46600293     0.20400
C274        C  0.36130557  0.95818546  0.45490845     0.23000
C275        C  0.34344364  0.93960082  0.46445177    -0.39000
C276        C  0.33118296  0.94162251  0.48574230     0.21800
N277        N  0.32132934  0.95874792  0.51420350    -0.32300
C278        C  0.30671320  0.93833054  0.01536681    -0.09800
C279        C  0.31230939  0.92698891  0.49820946    -0.28600
N280        N  0.37527877  0.96067695  0.43424750    -0.45200
C281        C  0.38926869  0.98137957  0.43253902    -0.04500
C282        C  0.38422102  0.99207103  0.45203577    -0.21900
H283        H  0.35782547  0.99413968  0.49473884     0.19900
H284        H  0.33918975  0.92473957  0.45552736     0.18700
H285        H  0.30312202  0.91057404  0.49352632     0.15000
H286        H  0.39240641  0.00863211  0.45521171     0.14900
H287        H  0.32069479  0.97070526  0.52388893     0.33000
H288        H  0.37529286  0.94910914  0.42211471     0.35800
C289        C  0.50443440  0.02329858  0.48612942     0.21400
C290        C  0.51972014  0.03427173  0.00835504    -0.38500
C291        C  0.52487643  0.02237776  0.02584346     0.20400
C292        C  0.51588669  0.00142321  0.02107825     0.23000
C293        C  0.50065607  0.99046012  0.49881522    -0.39000
C294        C  0.49550467  0.00235502  0.48131585     0.21800
N295        N  0.49682554  0.03104722  0.46641943    -0.32300
C296        C  0.48288161  0.01482261  0.44906067    -0.09800
C297        C  0.48171742  0.99674267  0.45761228    -0.28600
N298        N  0.52343137  0.99367233  0.04083845    -0.45200
C299        C  0.53730058  0.00985784  0.05826847    -0.04500
C300        C  0.53862130  0.02797941  0.04961021    -0.21900
H301        H  0.52674487  0.05062438  0.01229163     0.19900
H302        H  0.49366910  0.97411302  0.49486486     0.18700
H303        H  0.47191447  0.98146939  0.44793629     0.15000
H304        H  0.54840875  0.04323174  0.05935623     0.14900
H305        H  0.50073711  0.04629185  0.46501799     0.33000
H306        H  0.51943528  0.97839457  0.04235267     0.35800
C307        C  0.51364527  0.00093376  0.23244443     0.21400
C308        C  0.49469077  0.98927344  0.24761932    -0.38500
C309        C  0.49103964  0.99992518  0.26963550     0.20400
C310        C  0.50518360  0.02061912  0.27587918     0.23000
C311        C  0.52419445  0.03224016  0.26085533    -0.39000
C312        C  0.52787619  0.02156876  0.23895012     0.21800
N313        N  0.52060447  0.99451873  0.21020888    -0.32300
C314        C  0.53938863  0.01117871  0.20255486    -0.09800
C315        C  0.54454278  0.02832260  0.22007797    -0.28600
N316        N  0.49803032  0.02718433  0.29759741    -0.45200
C317        C  0.47923469  0.01056309  0.30535076    -0.04500
C318        C  0.47432975  0.99322884  0.28846861    -0.21900
H319        H  0.48359300  0.97312849  0.24258821     0.19900
H320        H  0.53526562  0.04840607  0.26579971     0.18700
H321        H  0.55840647  0.04370057  0.21877986     0.15000
H322        H  0.46047996  0.97784902  0.28985001     0.14900
H323        H  0.51295820  0.97977391  0.20061368     0.33000
H324        H  0.50554454  0.04205280  0.30673824     0.35800
C325        C  0.68891778  0.08429681  0.02665759     0.21400
C326        C  0.66758863  0.07564664  0.02519511    -0.38500
C327        C  0.65723998  0.06975378  0.05310671     0.20400
C328        C  0.66735805  0.07270158  0.08065614     0.23000
C329        C  0.68875993  0.08135903  0.08212856    -0.39000
C330        C  0.69904951  0.08679536  0.05406158     0.21800
N331        N  0.70132629  0.08920182  0.50282573    -0.32300
C332        C  0.71990138  0.09366231  0.01547601    -0.09800
C333        C  0.71895089  0.09279355  0.04720176    -0.28600
N334        N  0.65364796  0.06364214  0.10348030    -0.45200
C335        C  0.63474538  0.05442814  0.09010053    -0.04500
C336        C  0.63640280  0.05807013  0.05883923    -0.21900
H337        H  0.65906448  0.07279559  0.50349201     0.19900
H338        H  0.69658327  0.08254305  0.10333959     0.18700
H339        H  0.73087255  0.09509378  0.06300797     0.15000
H340        H  0.62397997  0.05167366  0.04223011     0.14900
H341        H  0.69741471  0.08741013  0.47972941     0.33000
H342        H  0.65687650  0.06223593  0.12617676     0.35800
C343        C  0.83489445  0.15712997  0.07397849     0.21400
C344        C  0.84746580  0.15986252  0.09906873    -0.38500
C345        C  0.85697934  0.17914673  0.11335797     0.20400
C346        C  0.85422324  0.19460235  0.10354778     0.23000
C347        C  0.84164587  0.19187588  0.07836830    -0.39000
C348        C  0.83209259  0.17253735  0.06405400     0.21800
N349        N  0.82402056  0.14013211  0.05669565    -0.32300
C350        C  0.81420106  0.14474131  0.03563103    -0.09800
C351        C  0.81882384  0.16478946  0.03947141    -0.28600
N352        N  0.86489689  0.21144123  0.12131239    -0.45200
C353        C  0.87452095  0.20657546  0.14242051    -0.04500
C354        C  0.86995341  0.18661094  0.13816313    -0.21900
H355        H  0.84963395  0.14783343  0.10695604     0.19900
H356        H  0.83938150  0.20386065  0.07059163     0.18700
H357        H  0.81315179  0.17258605  0.02614781     0.15000
H358        H  0.87533385  0.17859016  0.15158812     0.14900
H359        H  0.82325231  0.12624818  0.05914866     0.33000
H360        H  0.86562266  0.22531939  0.11919939     0.35800
C361        C  0.83578011  0.15749997  0.36097530     0.21400
C362        C  0.85456260  0.16450362  0.34632867    -0.38500
C363        C  0.85982567  0.17912727  0.32317745     0.20400
C364        C  0.84729164  0.18618562  0.31530803     0.23000
C365        C  0.82853607  0.17922976  0.33002074    -0.39000
C366        C  0.82325170  0.16457196  0.35315003     0.21800
N367        N  0.82737403  0.14365746  0.38367979    -0.32300
C368        C  0.80934026  0.14181760  0.39034774    -0.09800
C369        C  0.80620498  0.15465552  0.37184135    -0.28600
N370        N  0.85576084  0.20009887  0.29269719    -0.45200
C371        C  0.87383157  0.20197591  0.28618722    -0.04500
C372        C  0.87694814  0.18913782  0.30468407    -0.21900
H373        H  0.86435073  0.15898243  0.35253376     0.19900
H374        H  0.81879267  0.18481742  0.32389536     0.18700
H375        H  0.79333745  0.15658525  0.37218891     0.15000
H376        H  0.88995899  0.18742699  0.30466337     0.14900
H377        H  0.83359284  0.13599088  0.39413549     0.33000
H378        H  0.84967558  0.20794837  0.28243677     0.35800
C379        C  0.04394490  0.66137234  0.18639252     0.21400
C380        C  0.04069441  0.67477944  0.20281113    -0.38500
C381        C  0.05729021  0.68935346  0.22073915     0.20400
C382        C  0.07579736  0.69051245  0.22259747     0.23000
C383        C  0.07913738  0.67708956  0.20584544    -0.39000
C384        C  0.06245391  0.66248814  0.18749807     0.21800
N385        N  0.02996163  0.64538836  0.16940236    -0.32300
C386        C  0.03939168  0.63603211  0.15939583    -0.09800
C387        C  0.05985595  0.64640881  0.16980969    -0.28600
N388        N  0.08918140  0.70612837  0.24110185    -0.45200
C389        C  0.07903970  0.71498663  0.25049119    -0.04500
C390        C  0.05914813  0.70486089  0.23834584    -0.21900
H391        H  0.02618803  0.67383713  0.20183687     0.19900
H392        H  0.09354132  0.67785133  0.20715959     0.18700
H393        H  0.07074019  0.64185880  0.16688640     0.15000
H394        H  0.04777847  0.70879059  0.24122557     0.14900
H395        H  0.01450748  0.64046451  0.16611219     0.33000
H396        H  0.10446658  0.71101306  0.24592685     0.35800
C397        C  0.95921814  0.35368983  0.33144833     0.21400
C398        C  0.95263033  0.33274290  0.33285382    -0.38500
C399        C  0.94383083  0.32134852  0.30601275     0.20400
C400        C  0.94172213  0.33010282  0.27974203     0.23000
C401        C  0.94861051  0.35109515  0.27817630    -0.39000
C402        C  0.95743056  0.36248479  0.30497661     0.21800
N403        N  0.96908449  0.36810751  0.35329255    -0.32300
C404        C  0.97388576  0.38624911  0.34040974    -0.09800
C405        C  0.96684157  0.38330903  0.31035424    -0.28600
N406        N  0.93356599  0.31620041  0.25703884    -0.45200
C407        C  0.93068780  0.29852951  0.26885159    -0.04500
C408        C  0.93685829  0.30112476  0.29933415    -0.21900
H409        H  0.95460039  0.32591648  0.35314397     0.19900
H410        H  0.94760246  0.35816153  0.25741152     0.18700
H411        H  0.96920196  0.39504966  0.29414632     0.15000
H412        H  0.93685697  0.28989835  0.31429400     0.14900
H413        H  0.97343711  0.36598496  0.37488984     0.33000
H414        H  0.93093657  0.31880592  0.23459413     0.35800
C415        C  0.00402548  0.49301667  0.48662405     0.21400
C416        C  0.99226130  0.49329643  0.01059922    -0.38500
C417        C  0.00098879  0.51239135  0.02518420     0.20400
C418        C  0.01978392  0.52972077  0.01669346     0.23000
C419        C  0.03137313  0.52920820  0.99277178    -0.39000
C420        C  0.02273412  0.51035614  0.47785649     0.21800
N421        N  0.99884610  0.47682752  0.46873310    -0.32300
C422        C  0.01435600  0.48391995  0.44838687    -0.09800
C423        C  0.02956838  0.50472726  0.45339705    -0.28600
N424        N  0.02441984  0.54607699  0.03386309    -0.45200
C425        C  0.00840019  0.53899256  0.05330795    -0.04500
C426        C  0.99355640  0.51809323  0.04863726    -0.21900
H427        H  0.97747124  0.47987267  0.01717639     0.19900
H428        H  0.04594634  0.54310129  0.48526341     0.18700
H429        H  0.04361284  0.51446261  0.44062923     0.15000
H430        H  0.97916790  0.50841520  0.06067159     0.14900
H431        H  0.98551434  0.46195714  0.47008272     0.33000
H432        H  0.03753912  0.56107852  0.03235863     0.35800
C433        C  0.02071017  0.50775183  0.27114717     0.21400
C434        C  0.03088027  0.52422848  0.25045914    -0.38500
C435        C  0.01818114  0.52858567  0.23351890     0.20400
C436        C  0.99692151  0.51740057  0.23674564     0.23000
C437        C  0.98673766  0.50103957  0.25777254    -0.39000
C438        C  0.99948253  0.49670916  0.27480586     0.21800
N439        N  0.02930200  0.50038066  0.28957900    -0.32300
C440        C  0.01343771  0.48463735  0.30531197    -0.09800
C441        C  0.99461840  0.48188485  0.29674213    -0.28600
N442        N  0.98836236  0.52406735  0.21679273    -0.45200
C443        C  0.00436633  0.53961622  0.20085334    -0.04500
C444        C  0.02315113  0.54292492  0.21084612    -0.21900
H445        H  0.04745720  0.53285598  0.24744960     0.19900
H446        H  0.97012306  0.49216908  0.26040638     0.18700
H447        H  0.97942431  0.47055630  0.30545496     0.15000
H448        H  0.03839395  0.55395788  0.20200190     0.14900
H449        H  0.04497303  0.50585706  0.29158212     0.33000
H450        H  0.97265315  0.51815148  0.21377744     0.35800
C451        C  0.60821158  0.93175977  0.22889087     0.21400
C452        C  0.59567657  0.93967255  0.23148064    -0.38500
C453        C  0.59180840  0.94679281  0.20435366     0.20400
C454        C  0.59945783  0.94573206  0.17655649     0.23000
C455        C  0.61213471  0.93796280  0.17400126    -0.39000
C456        C  0.61635083  0.93122878  0.20125221     0.21800
N457        N  0.61564237  0.92578664  0.25169503    -0.32300
C458        C  0.62892752  0.92182552  0.23857209    -0.09800
C459        C  0.62974306  0.92500193  0.20714935    -0.28600
N460        N  0.59516509  0.95524217  0.15472922    -0.45200
C461        C  0.58519629  0.96285315  0.16891328    -0.04500
C462        C  0.58269404  0.95777082  0.19979244    -0.21900
H463        H  0.59021261  0.94116022  0.25326564     0.19900
H464        H  0.61906223  0.93812740  0.15263175     0.18700
H465        H  0.63944823  0.92369857  0.19098089     0.15000
H466        H  0.57634968  0.96270600  0.21697091     0.14900
H467        H  0.61277113  0.92555261  0.27491441     0.33000
H468        H  0.60023221  0.95791900  0.13221500     0.35800
C469        C  0.68531822  0.86159581  0.18222690     0.21400
C470        C  0.69819401  0.86044282  0.16124858    -0.38500
C471        C  0.68879856  0.84248718  0.14352210     0.20400
C472        C  0.66815462  0.82683276  0.14645782     0.23000
C473        C  0.65527904  0.82794819  0.16756657    -0.39000
C474        C  0.66468883  0.84592868  0.18532672     0.21800
N475        N  0.69044457  0.87726045  0.20120145    -0.32300
C476        C  0.67296878  0.87154678  0.21649326    -0.09800
C477        C  0.65658630  0.85204015  0.20740430    -0.28600
N478        N  0.66301002  0.81138664  0.12694077    -0.45200
C479        C  0.68054625  0.81726047  0.11161388    -0.04500
C480        C  0.69691897  0.83659156  0.12123679    -0.21900
H481        H  0.71431892  0.87267552  0.15880290     0.19900
H482        H  0.63912756  0.81576820  0.16990508     0.18700
H483        H  0.64084828  0.84361156  0.21558198     0.15000
H484        H  0.71265114  0.84515885  0.11302792     0.14900
H485        H  0.70491775  0.89100842  0.20356458     0.33000
H486        H  0.64851064  0.79772205  0.12422385     0.35800
C487        C  0.66860663  0.85073858  0.39388087     0.21400
C488        C  0.65913447  0.83617058  0.41729899    -0.38500
C489        C  0.67215602  0.83231236  0.43423057     0.20400
C490        C  0.69303987  0.84197244  0.42830534     0.23000
C491        C  0.70258234  0.85667065  0.40485563    -0.39000
C492        C  0.68953206  0.86067200  0.38798723     0.21800
N493        N  0.65960722  0.85738492  0.37494569    -0.32300
C494        C  0.67494195  0.87177445  0.35695683    -0.09800
C495        C  0.69380513  0.87421625  0.36431297    -0.28600
N496        N  0.70185035  0.83529159  0.44775968    -0.45200
C497        C  0.68634175  0.82143352  0.46617518    -0.04500
C498        C  0.66771886  0.81926566  0.45841491    -0.21900
H499        H  0.64282410  0.82848602  0.42213911     0.19900
H500        H  0.71892522  0.86448005  0.40018455     0.18700
H501        H  0.70868408  0.88469242  0.35395558     0.15000
H502        H  0.65280490  0.80926524  0.46896877     0.14900
H503        H  0.64408992  0.85264177  0.37455552     0.33000
H504        H  0.71730944  0.83985251  0.44849713     0.35800
C505        C  0.71141567  0.98557537  0.37413175     0.21400
C506        C  0.70858909  0.99566482  0.39790230    -0.38500
C507        C  0.72653878  0.01294108  0.40964079     0.20400
C508        C  0.74600786  0.01981593  0.39866068     0.23000
C509        C  0.74885878  0.00968106  0.37451876    -0.39000
C510        C  0.73071257  0.99218532  0.36268052     0.21800
N511        N  0.69657742  0.96882001  0.35941276    -0.32300
C512        C  0.70620872  0.96439024  0.33830644    -0.09800
C513        C  0.72761761  0.97867127  0.33944231    -0.28600
N514        N  0.76030450  0.03770436  0.41228156    -0.45200
C515        C  0.74963385  0.04220979  0.43152512    -0.04500
C516        C  0.72862605  0.02701808  0.43060252    -0.21900
H517        H  0.69339633  0.99064482  0.40625594     0.19900
H518        H  0.76397241  0.01519265  0.36533363     0.18700
H519        H  0.73926704  0.97891096  0.32563508     0.15000
H520        H  0.71631707  0.02716893  0.44189585     0.14900
H521        H  0.68073974  0.96068174  0.36378698     0.33000
H522        H  0.77596469  0.04713739  0.40688360     0.35800
C523        C  0.72132680  0.73641644  0.10906440     0.21400
C524        C  0.71662002  0.71832346  0.12420167    -0.38500
C525        C  0.73259797  0.71981362  0.14168176     0.20400
C526        C  0.75187822  0.73797192  0.14417381     0.23000
C527        C  0.75668958  0.75614996  0.12864724    -0.39000
C528        C  0.74060789  0.75464435  0.11088192     0.21800
N529        N  0.70833441  0.73901224  0.09227739    -0.32300
C530        C  0.71918871  0.75901025  0.08305330    -0.09800
C531        C  0.73954983  0.76933472  0.09393513    -0.28600
N532        N  0.76440009  0.73505210  0.16203860    -0.45200
C533        C  0.75295952  0.71483548  0.17047042    -0.04500
C534        C  0.73307168  0.70491310  0.15826016    -0.21900
H535        H  0.70152528  0.70410312  0.12258987     0.19900
H536        H  0.77174775  0.77038989  0.13040465     0.18700
H537        H  0.75154525  0.78553070  0.09117766     0.15000
H538        H  0.72079167  0.68875904  0.16045583     0.14900
H539        H  0.69273095  0.72791678  0.08806337     0.33000
H540        H  0.77994205  0.74584234  0.16710927     0.35800
C541        C  0.92745146  0.60875569  0.01992338     0.21400
C542        C  0.93604868  0.59684075  0.01664127    -0.38500
C543        C  0.94187495  0.59147339  0.04376569     0.20400
C544        C  0.93905728  0.59723774  0.07209034     0.23000
C545        C  0.93073248  0.60939387  0.07534318    -0.39000
C546        C  0.92517943  0.61500311  0.04820230     0.21800
N547        N  0.92169844  0.61671270  0.49703488    -0.32300
C548        C  0.91688698  0.62917037  0.01172752    -0.09800
C549        C  0.91852023  0.62815257  0.04329173    -0.28600
N550        N  0.94735123  0.59163543  0.09411395    -0.45200
C551        C  0.95597547  0.58270053  0.07968796    -0.04500
C552        C  0.95275269  0.58220847  0.04829106    -0.21900
H553        H  0.93830726  0.59231377  0.49404149     0.19900
H554        H  0.92947426  0.61481649  0.09732134     0.18700
H555        H  0.91607008  0.63664925  0.06029695     0.15000
H556        H  0.95878806  0.57704744  0.03096128     0.14900
H557        H  0.92273568  0.61527376  0.47362443     0.33000
H558        H  0.94856304  0.59519065  0.11722845     0.35800
C559        C  0.85712319  0.68670977  0.07045456     0.21400
C560        C  0.85493415  0.69842314  0.09245752    -0.38500
C561        C  0.83629713  0.68803724  0.10857587     0.20400
C562        C  0.82094961  0.66752906  0.10329673     0.23000
C563        C  0.82307966  0.65583163  0.08112847    -0.39000
C564        C  0.84174495  0.66623982  0.06496513     0.21800
N565        N  0.87353165  0.69290046  0.05248661    -0.32300
C566        C  0.86853879  0.67626188  0.03534560    -0.09800
C567        C  0.84883303  0.65936682  0.04244920    -0.28600
N568        N  0.80493280  0.66117459  0.12222093    -0.45200
C569        C  0.81017368  0.67782364  0.13954591    -0.04500
C570        C  0.82958696  0.69482860  0.13166098    -0.21900
H571        H  0.86694171  0.71440156  0.09691323     0.19900
H572        H  0.81117938  0.63977566  0.07695290     0.18700
H573        H  0.84084021  0.64406420  0.03259051     0.15000
H574        H  0.83781492  0.71005503  0.14179765     0.14900
H575        H  0.88725986  0.70750705  0.05193326     0.33000
H576        H  0.79141232  0.64643498  0.12347275     0.35800
C577        C  0.85217469  0.66722935  0.35022703     0.21400
C578        C  0.83536245  0.65621444  0.33020960    -0.38500
C579        C  0.82989256  0.66811819  0.31341735     0.20400
C580        C  0.84022558  0.68937190  0.31639880     0.23000
C581        C  0.85713256  0.70041800  0.33630702    -0.39000
C582        C  0.86269850  0.68851541  0.35297352     0.21800
N583        N  0.85973108  0.65939857  0.36985123    -0.32300
C584        C  0.87515222  0.67582866  0.38526662    -0.09800
C585        C  0.87757567  0.69424818  0.37515302    -0.28600
N586        N  0.83175552  0.69699240  0.29814080    -0.45200
C587        C  0.81603208  0.68043483  0.28330313    -0.04500
C588        C  0.81443027  0.66220873  0.29224146    -0.21900
H589        H  0.82699523  0.63956564  0.32810737     0.19900
H590        H  0.86519667  0.71701117  0.33892360     0.18700
H591        H  0.88816923  0.70966409  0.38389058     0.15000
H592        H  0.80339768  0.64668388  0.28426089     0.14900
H593        H  0.85423916  0.64381145  0.37333632     0.33000
H594        H  0.83647673  0.71245184  0.29571171     0.35800
C595        C  0.02602193  0.75021997  0.37730334     0.21400
C596        C  0.00906011  0.75121985  0.38569174    -0.38500
C597        C  0.99641517  0.73730721  0.40864220     0.20400
C598        C  0.00035788  0.72341888  0.42188146     0.23000
C599        C  0.01731227  0.72254736  0.41369964    -0.39000
C600        C  0.02991577  0.73644570  0.39104130     0.21800
N601        N  0.03988839  0.76101101  0.35521916    -0.32300
C602        C  0.05258061  0.75394218  0.35522291    -0.09800
C603        C  0.04686056  0.73871257  0.37726046    -0.28600
N604        N  0.98490737  0.71021898  0.44029547    -0.45200
C605        C  0.97096401  0.71565919  0.43897732    -0.04500
C606        C  0.97767877  0.73268306  0.41980623    -0.21900
H607        H  0.00557336  0.76153703  0.37450453     0.19900
H608        H  0.02007538  0.71133469  0.42350563     0.18700
H609        H  0.05394786  0.73014239  0.38213753     0.15000
H610        H  0.96907012  0.73934765  0.41261452     0.14900
H611        H  0.04056442  0.77226024  0.34093802     0.33000
H612        H  0.98326343  0.69738669  0.45145322     0.35800
C613        C  0.62977153  0.70725616  0.44958296     0.21400
C614        C  0.62691626  0.69741557  0.42152706    -0.38500
C615        C  0.61255274  0.67594850  0.42139106     0.20400
C616        C  0.60198705  0.66521994  0.44735486     0.23000
C617        C  0.60447863  0.67510517  0.47514983    -0.39000
C618        C  0.61872877  0.69651649  0.47524295     0.21800
N619        N  0.64434905  0.72691950  0.45665993    -0.32300
C620        C  0.64248311  0.72865918  0.48694446    -0.09800
C621        C  0.62645256  0.70997078  0.00016116    -0.28600
N622        N  0.59160296  0.64479097  0.44266618    -0.45200
C623        C  0.59546428  0.64238518  0.41355630    -0.04500
C624        C  0.60820258  0.66146427  0.39926983    -0.21900
H625        H  0.63610258  0.70566020  0.40178154     0.19900
H626        H  0.59790250  0.66622850  0.99692833     0.18700
H627        H  0.62269527  0.70640628  0.02400009     0.15000
H628        H  0.61493601  0.66430891  0.37685600     0.14900
H629        H  0.65551435  0.73818611  0.44211524     0.33000
H630        H  0.58343585  0.63316154  0.45889434     0.35800
C631        C  0.65954682  0.59855270  0.31329354     0.21400
C632        C  0.66858416  0.59977163  0.28513013    -0.38500
C633        C  0.68972374  0.61502952  0.28274485     0.20400
C634        C  0.70094628  0.62806392  0.30666064     0.23000
C635        C  0.69202850  0.62652651  0.33503636    -0.39000
C636        C  0.67089965  0.61125802  0.33744326     0.21800
N637        N  0.63929537  0.58764792  0.31967801    -0.32300
C638        C  0.63771462  0.59339165  0.34803904    -0.09800
C639        C  0.65712785  0.60782691  0.36012152    -0.28600
N640        N  0.72006176  0.64278007  0.29764281    -0.45200
C641        C  0.72109388  0.63908045  0.26784581    -0.04500
C642        C  0.70254744  0.62174143  0.25776244    -0.21900
H643        H  0.65954987  0.59038373  0.26592248     0.19900
H644        H  0.70062537  0.63725843  0.35329400     0.18700
H645        H  0.66050199  0.61631479  0.38115752     0.15000
H646        H  0.69860915  0.61564503  0.23488107     0.14900
H647        H  0.62718167  0.57804987  0.30479358     0.33000
H648        H  0.73149890  0.65503403  0.31069728     0.35800
C649        C  0.52863893  0.52167985  0.49249905     0.21400
C650        C  0.52503460  0.50714527  0.51500317    -0.38500
C651        C  0.50652705  0.49816890  0.02989372     0.20400
C652        C  0.49258675  0.50379613  0.02384280     0.23000
C653        C  0.49635544  0.51859014  0.00163961    -0.39000
C654        C  0.51454601  0.52705791  0.48606471     0.21800
N655        N  0.54506537  0.53177049  0.47409223    -0.32300
C656        C  0.54131159  0.54355924  0.45575396    -0.09800
C657        C  0.52249931  0.54111982  0.46256744    -0.28600
N658        N  0.47598696  0.49338048  0.04191430    -0.45200
C659        C  0.47952694  0.48117234  0.05965855    -0.04500
C660        C  0.49835717  0.48368333  0.05280039    -0.21900
H661        H  0.53596663  0.50284204  0.52001926     0.19900
H662        H  0.48550430  0.52302125  0.99678687     0.18700
H663        H  0.51545526  0.54839930  0.45145993     0.15000
H664        H  0.50521751  0.47606163  0.06338037     0.14900
H665        H  0.55782342  0.53044843  0.47365933     0.33000
H666        H  0.46321639  0.49467917  0.04242336     0.35800
C667        C  0.51846706  0.51545803  0.28648949     0.21400
C668        C  0.51010774  0.49587809  0.27356657    -0.38500
C669        C  0.49881026  0.49222377  0.24661605     0.20400
C670        C  0.49593820  0.50692964  0.23373962     0.23000
C671        C  0.50423015  0.52651032  0.24675840    -0.39000
C672        C  0.51569953  0.53023496  0.27360114     0.21800
N673        N  0.53063923  0.52298751  0.31117795    -0.32300
C674        C  0.53583214  0.54274115  0.31397899    -0.09800
C675        C  0.52671660  0.54785997  0.29109031    -0.28600
N676        N  0.48485349  0.49976260  0.20793898    -0.45200
C677        C  0.48068376  0.48039963  0.20430461    -0.04500
C678        C  0.48911870  0.47510967  0.22799134    -0.21900
H679        H  0.51255080  0.48447516  0.28348478     0.19900
H680        H  0.50221573  0.53809825  0.23644321     0.18700
H681        H  0.52847473  0.56261307  0.28720407     0.15000
H682        H  0.48816599  0.46069035  0.23123983     0.14900
H683        H  0.53562731  0.51533207  0.32479018     0.33000
H684        H  0.48033607  0.50755101  0.19369672     0.35800
C685        C  0.39053329  0.06903978  0.26547253     0.16000
C686        C  0.38730558  0.05062390  0.27724061    -0.38500
C687        C  0.40321834  0.05261409  0.29540608     0.20400
C688        C  0.42115220  0.07151223  0.30160530     0.23000
C689        C  0.42450001  0.09011914  0.28951855    -0.39000
C690        C  0.40840630  0.08812618  0.27113846     0.21800
N691        N  0.37678241  0.07110860  0.24990589    -0.32300
C692        C  0.38564765  0.09163012  0.24550428    -0.09800
C693        C  0.40559711  0.10288180  0.25801500    -0.28600
N694        N  0.43355370  0.06896383  0.32042111    -0.45200
C695        C  0.42328274  0.04828439  0.32587168    -0.04500
C696        C  0.40438293  0.03769881  0.31061690    -0.21900
H697        H  0.37311940  0.03580698  0.27319426     0.19900
H698        H  0.43829666  0.10501628  0.29466833     0.18700
H699        H  0.41588204  0.11952013  0.25948973     0.15000
H700        H  0.39294695  0.02121424  0.31072576     0.14900
H701        H  0.36172299  0.05926098  0.24406815     0.33000
H702        H  0.44805895  0.08046033  0.32881044     0.35800
C703        C  0.27189611  0.00253183  0.10185344     0.21400
C704        C  0.28358340  0.02422455  0.10008620    -0.38500
C705        C  0.28876423  0.03466939  0.12803990     0.20400
C706        C  0.28265311  0.02433832  0.15567899     0.23000
C707        C  0.27133237  0.00267052  0.15746150    -0.39000
C708        C  0.26628020  0.99224100  0.12954819     0.21800
N709        N  0.26628952  0.98908233  0.07875599    -0.32300
C710        C  0.25746283  0.97017649  0.09197451    -0.09800
C711        C  0.25710192  0.97153548  0.12355134    -0.28600
N712        N  0.29049022  0.03779502  0.17897353    -0.45200
C713        C  0.30201650  0.05681521  0.16607612    -0.04500
C714        C  0.30124826  0.05547544  0.13437520    -0.21900
H715        H  0.28882883  0.03237924  0.07859006     0.19900
H716        H  0.26732978  0.99453816  0.17903211     0.18700
H717        H  0.25185686  0.95913815  0.13999369     0.15000
H718        H  0.30956790  0.06799412  0.11818915     0.14900
H719        H  0.26955135  0.99266388  0.05569701     0.33000
H720        H  0.28917659  0.03420121  0.20215196     0.35800
C721        C  0.35118536  0.19316716  0.06653774     0.21400
C722        C  0.36453322  0.18900048  0.08209131    -0.38500
C723        C  0.35575734  0.17495631  0.10638819     0.20400
C724        C  0.33529780  0.16593752  0.11453219     0.23000
C725        C  0.32195821  0.17005690  0.09892602    -0.39000
C726        C  0.33070266  0.18404396  0.07460381     0.21800
N727        N  0.35575027  0.20585815  0.04265246    -0.32300
C728        C  0.33810677  0.20486612  0.03539824    -0.09800
C729        C  0.32208546  0.19141231  0.05485155    -0.28600
N730        N  0.33060246  0.15308457  0.13822003    -0.45200
C731        C  0.34808114  0.15371591  0.14514551    -0.04500
C732        C  0.36418421  0.16720343  0.12579708    -0.21900
H733        H  0.38052441  0.19609953  0.07564929     0.19900
H734        H  0.30593399  0.16285780  0.10524770     0.18700
H735        H  0.30635313  0.18758064  0.05461041     0.15000
H736        H  0.37979633  0.17069766  0.12576698     0.14900
H737        H  0.37007243  0.21475049  0.03197089     0.33000
H738        H  0.31621846  0.14408821  0.14869997     0.35800
C739        C  0.35325400  0.19522806  0.35719521     0.21400
C740        C  0.36562408  0.19218875  0.33768923    -0.38500
C741        C  0.35538066  0.17345796  0.32167595     0.20400
C742        C  0.33440926  0.15892306  0.32468007     0.23000
C743        C  0.32202054  0.16203541  0.34398575    -0.39000
C744        C  0.33227908  0.18068670  0.36013364     0.21800
N745        N  0.35933712  0.21144035  0.37560275    -0.32300
C746        C  0.34208235  0.20709997  0.39035652    -0.09800
C747        C  0.32491522  0.18811088  0.38124018    -0.28600
N748        N  0.32831188  0.14260599  0.30652929    -0.45200
C749        C  0.34551954  0.14684542  0.29176668    -0.04500
C750        C  0.36271696  0.16589398  0.30070660    -0.21900
H751        H  0.38201466  0.20351579  0.33525543     0.19900
H752        H  0.30562169  0.15072741  0.34637450     0.18700
H753        H  0.30923155  0.18056602  0.38944348     0.15000
H754        H  0.37833639  0.17348959  0.29221614     0.14900
H755        H  0.37430759  0.22443579  0.37835426     0.33000
H756        H  0.31329330  0.12971066  0.30366424     0.35800
C757        C  0.40060725  0.32707827  0.03399812     0.21400
C758        C  0.41760651  0.34759956  0.03566470    -0.38500
C759        C  0.41918120  0.35827930  0.06230275     0.20400
C760        C  0.40513888  0.34911990  0.08582794     0.23000
C761        C  0.38806387  0.32862105  0.08407733    -0.39000
C762        C  0.38629734  0.31806175  0.05720729     0.21800
N763        N  0.39474653  0.31478985  0.50920124    -0.32300
C764        C  0.37649385  0.29700860  0.01807550    -0.09800
C765        C  0.37073861  0.29880147  0.04728632    -0.28600
N766        N  0.40894924  0.36311049  0.10732701    -0.45200
C767        C  0.42521627  0.38137348  0.09706942    -0.04500
C768        C  0.43206372  0.37895058  0.06915740    -0.21900
H769        H  0.42802784  0.35571082  0.51613166     0.19900
H770        H  0.37648736  0.32171567  0.10171839     0.18700
H771        H  0.35676453  0.28770946  0.05929895     0.15000
H772        H  0.44384757  0.39099372  0.05474087     0.14900
H773        H  0.40220836  0.31794486  0.48827743     0.33000
H774        H  0.39990789  0.36078362  0.12634585     0.35800
C775        C  0.08167656  0.43215680  0.44534108     0.21400
C776        C  0.08883529  0.42936555  0.47338391    -0.38500
C777        C  0.09593699  0.41602518  0.47316221     0.20400
C778        C  0.09564271  0.40602809  0.44699227     0.23000
C779        C  0.08879860  0.40908884  0.41885346    -0.39000
C780        C  0.08192395  0.42261776  0.41899694     0.21800
N781        N  0.07191899  0.44200215  0.44043500    -0.32300
C782        C  0.06596581  0.43887195  0.41075776    -0.09800
C783        C  0.07218897  0.42705257  0.39649278    -0.28600
N784        N  0.10041855  0.39202971  0.45349749    -0.45200
C785        C  0.10376354  0.39337404  0.98355877    -0.04500
C786        C  0.10194653  0.40883924  0.99626614    -0.21900
H787        H  0.08893569  0.43742011  0.99299850     0.19900
H788        H  0.08786325  0.40068978  0.39865803     0.18700
H789        H  0.06837091  0.42088898  0.37364221     0.15000
H790        H  0.10287535  0.41263044  0.02012220     0.14900
H791        H  0.06837004  0.44932610  0.45678339     0.33000
H792        H  0.10021919  0.38155568  0.43837582     0.35800
C793        C  0.02843471  0.30769177  0.11431047     0.21400
C794        C  0.01636625  0.31097935  0.13396595    -0.38500
C795        C  0.00090199  0.29349548  0.14949201     0.20400
C796        C  0.99768802  0.27412644  0.14603641     0.23000
C797        C  0.00980455  0.27081901  0.12616881    -0.39000
C798        C  0.02528579  0.28839260  0.11031660     0.21800
N799        N  0.04424443  0.32197524  0.09738670    -0.32300
C800        C  0.05137176  0.31189330  0.08226389    -0.09800
C801        C  0.03985895  0.29081517  0.08955759    -0.28600
N802        N  0.98111629  0.25987098  0.16216310    -0.45200
C803        C  0.97369108  0.27034250  0.17541009    -0.04500
C804        C  0.98572705  0.29131289  0.16820220    -0.21900
H805        H  0.01865554  0.32603355  0.13662282     0.19900
H806        H  0.00719541  0.25567466  0.12298184     0.18700
H807        H  0.04233198  0.27907715  0.08172820     0.15000
H808        H  0.98300153  0.30317280  0.17442457     0.14900
H809        H  0.05015000  0.33779984  0.09666974     0.33000
H810        H  0.97449465  0.24391066  0.16249895     0.35800
C811        C  0.31630879  0.38816678  0.20350575     0.21400
C812        C  0.32649438  0.39031311  0.17613781    -0.38500
C813        C  0.34774309  0.40536760  0.17593079     0.20400
C814        C  0.35814222  0.41710668  0.20131443     0.23000
C815        C  0.34789342  0.41512322  0.22866545    -0.39000
C816        C  0.32651529  0.40027591  0.22868899     0.21800
N817        N  0.29642615  0.37411318  0.20989665    -0.32300
C818        C  0.29379480  0.37732945  0.23926162    -0.09800
C819        C  0.31217969  0.39364599  0.25177542    -0.28600
N820        N  0.37859269  0.42874676  0.19621271    -0.45200
C821        C  0.38116914  0.42456207  0.16729558    -0.04500
C822        C  0.36226348  0.41020013  0.15380730    -0.21900
H823        H  0.31854741  0.38054748  0.15668764     0.19900
H824        H  0.35605537  0.42403501  0.24869298     0.18700
H825        H  0.31492091  0.39915873  0.27498230     0.15000
H826        H  0.35966648  0.40304069  0.13173556     0.14900
H827        H  0.28542395  0.36262565  0.19538759     0.33000
H828        H  0.39017169  0.43824273  0.21187092     0.35800
C829        C  0.28400708  0.29791747  0.35334412     0.21400
C830        C  0.30246102  0.30172410  0.36608250    -0.38500
C831        C  0.30078097  0.28560124  0.38346649     0.20400
C832        C  0.28210981  0.26710886  0.38828362     0.23000
C833        C  0.26354401  0.26326088  0.37536745    -0.39000
C834        C  0.26525879  0.27938199  0.35750346     0.21800
N835        N  0.28159809  0.31108610  0.33664672    -0.32300
C836        C  0.26119879  0.30099487  0.32980848    -0.09800
C837        C  0.25042688  0.28105673  0.34221826    -0.28600
N838        N  0.28485368  0.25434822  0.40586276    -0.45200
C839        C  0.30544747  0.26484197  0.41186133    -0.04500
C840        C  0.31581423  0.28433224  0.39823773    -0.21900
H841        H  0.31709446  0.31622427  0.36269847     0.19900
H842        H  0.24888831  0.24883297  0.37896468     0.18700
H843        H  0.23394160  0.26974908  0.34138313     0.15000
H844        H  0.33222233  0.29599902  0.39895431     0.14900
H845        H  0.29311727  0.32626878  0.33080485     0.33000
H846        H  0.27354986  0.23936179  0.41283572     0.35800
C847        C  0.18585433  0.34772067  0.18566883     0.21400
C848        C  0.17949822  0.36019900  0.17304188    -0.38500
C849        C  0.16752293  0.35268837  0.14638922     0.20400
C850        C  0.16234055  0.33416535  0.13339027     0.23000
C851        C  0.16875705  0.32171933  0.14597591    -0.39000
C852        C  0.18069284  0.32920459  0.17267520     0.21800
N853        N  0.19721889  0.35139478  0.21096216    -0.32300
C854        C  0.19932128  0.33512588  0.21425084    -0.09800
C855        C  0.18923924  0.32092415  0.19075646    -0.28600
N856        N  0.15050241  0.33022762  0.10854258    -0.45200
C857        C  0.14808302  0.34631481  0.10561790    -0.04500
C858        C  0.15854822  0.36071815  0.12875972    -0.21900
H859        H  0.18348464  0.37462982  0.18333248     0.19900
H860        H  0.16462066  0.30720034  0.13583791     0.18700
H861        H  0.18836948  0.30659787  0.18730381     0.15000
H862        H  0.15918351  0.37490156  0.13248381     0.14900
H863        H  0.20326404  0.36427320  0.22511551     0.33000
H864        H  0.14424987  0.31724387  0.09456831     0.35800
C865        C  0.17037261  0.35016769  0.43445856     0.21400
C866        C  0.18915413  0.36125111  0.41874843    -0.38500
C867        C  0.19245023  0.34983525  0.39766408     0.20400
C868        C  0.17817297  0.32897310  0.39278574     0.23000
C869        C  0.15936422  0.31792756  0.40840428    -0.39000
C870        C  0.15599370  0.32936700  0.42930500     0.21800
N871        N  0.16353770  0.35743614  0.45559427    -0.32300
C872        C  0.14462226  0.34118390  0.46375040    -0.09800
C873        C  0.13933936  0.32341139  0.44783093    -0.28600
N874        N  0.18478015  0.32175709  0.37120295    -0.45200
C875        C  0.20333097  0.33816051  0.36214938    -0.04500
C876        C  0.20868162  0.35594869  0.37815681    -0.21900
H877        H  0.20029523  0.37756851  0.42250819     0.19900
H878        H  0.14811126  0.30167007  0.40438323     0.18700
H879        H  0.12533478  0.30818503  0.44979289     0.15000
H880        H  0.22236484  0.37133047  0.37541845     0.14900
H881        H  0.17190690  0.37318607  0.96430061     0.33000
H882        H  0.17696451  0.30669709  0.36272596     0.35800
O883        O  0.23295818  0.35330238  0.82894738    -0.56800
C884        C  0.27469298  0.36369599  0.75581028     0.75900
O885        O  0.23496888  0.30198565  0.80056853    -0.57900
C886        C  0.21575324  0.33764475  0.83741724     0.75800
C887        C  0.21175545  0.33410336  0.73902086     0.78200
Cd888      Cd  0.23746960  0.33510536  0.78719901     1.37500
O889        O  0.27072722  0.36866333  0.78110119    -0.56800
O890        O  0.22081782  0.34862212  0.75812630    -0.55600
C891        C  0.25224597  0.31151930  0.81459839     0.78200
O892        O  0.21379734  0.31888112  0.74252110    -0.58000
O893        O  0.26133493  0.34600722  0.74531268    -0.56400
O894        O  0.20900714  0.32092827  0.82314126    -0.56400
O895        O  0.26198062  0.33101835  0.81502921    -0.55600
O896        O  0.11323225  0.32800620  0.49183574    -0.56800
C897        C  0.07010553  0.32260247  0.56405940     0.75900
O898        O  0.13416385  0.36275311  0.57690427    -0.57900
C899        C  0.13196966  0.34251025  0.48707761     0.75800
C900        C  0.10611849  0.37781845  0.50109547     0.78200
Cd901      Cd  0.10936488  0.34682078  0.53354083     1.37500
O902        O  0.07512947  0.31372260  0.54515594    -0.56800
O903        O  0.09952385  0.36012118  0.49010367    -0.55600
C904        C  0.13507731  0.34696038  0.58143965     0.78200
O905        O  0.11428663  0.38143538  0.52746445    -0.58000
O906        O  0.08245948  0.34189664  0.56704340    -0.56400
O907        O  0.13963089  0.35848805  0.50350690    -0.56400
O908        O  0.12427549  0.33167676  0.56410096    -0.55600
O909        O  0.35723975  0.23715159  0.92218589    -0.56800
C910        C  0.36391815  0.27912823  0.99805267     0.75900
O911        O  0.30614987  0.24107784  0.94786145    -0.57900
C912        C  0.34120513  0.22009153  0.91385808     0.75800
C913        C  0.33740173  0.21739286  0.51016989     0.78200
Cd914      Cd  0.33855748  0.24299403  0.96229899     1.37500
O915        O  0.37110760  0.27624496  0.97404201    -0.56800
O916        O  0.35264510  0.22800307  0.99377211    -0.55600
C917        C  0.31562207  0.25687581  0.93053223     0.78200
O918        O  0.32094818  0.21732608  0.00440692    -0.58000
O919        O  0.34522694  0.26573488  0.00448025    -0.56400
O920        O  0.32450231  0.21429775  0.92747042    -0.56400
O921        O  0.33503661  0.26577415  0.92864706    -0.55600
O922        O  0.31338790  0.07819745  0.71145800    -0.56800
C923        C  0.34536138  0.13403101  0.76706103     0.75900
O924        O  0.38137017  0.11739920  0.72127812    -0.57900
C925        C  0.31584846  0.07564456  0.68366762     0.75800
C926        C  0.34902219  0.14091829  0.66898879     0.78200
Cd927      Cd  0.34663245  0.11294423  0.71457521     1.37500
O928        O  0.32913066  0.11745721  0.75805438    -0.56800
O929        O  0.33427870  0.13158882  0.68761245    -0.55600
C930        C  0.37349423  0.09983596  0.73400883     0.78200
O931        O  0.36365857  0.13798657  0.67176087    -0.58000
O932        O  0.36185251  0.13986463  0.75291348    -0.56400
O933        O  0.33180267  0.09028653  0.67075229    -0.56400
O934        O  0.35409902  0.08914353  0.73689890    -0.55600
O935        O  0.61544934  0.58905252  0.88772830    -0.56800
C936        C  0.55529525  0.55673385  0.93086106     0.75900
O937        O  0.58745369  0.61818247  0.87375026    -0.57900
C938        C  0.61807591  0.58896007  0.85932791     0.75800
C939        C  0.55086466  0.55699715  0.83688823     0.78200
Cd940      Cd  0.58015207  0.58263196  0.88205595     1.37500
O941        O  0.57259660  0.55902806  0.92563896    -0.56800
O942        O  0.55881764  0.55066474  0.85556000    -0.55600
C943        C  0.59023219  0.62248247  0.90187290     0.78200
O944        O  0.55622593  0.57572274  0.83910406    -0.58000
O945        O  0.54997257  0.56632132  0.91371004    -0.56400
O946        O  0.60326799  0.58545751  0.84230213    -0.56400
O947        O  0.58832123  0.60864739  0.91969022    -0.55600
O948        O  0.44789347  0.46466850  0.58898775    -0.56800
C949        C  0.40163637  0.43148827  0.65469647     0.75900
O950        O  0.43339464  0.40505583  0.63848950    -0.57900
C951        C  0.46549950  0.46756527  0.58408243     0.75800
C952        C  0.46822547  0.46670512  0.67936821     0.78200
Cd953      Cd  0.44075160  0.44083893  0.63216426     1.37500
O954        O  0.40508250  0.43325676  0.62632008    -0.56800
O955        O  0.45981240  0.47257659  0.66075077    -0.55600
C956        C  0.43136957  0.40145404  0.61013952     0.78200
O957        O  0.46459863  0.44866492  0.67572903    -0.58000
O958        O  0.41630884  0.43489103  0.67195095    -0.56400
O959        O  0.47111891  0.45821836  0.60123790    -0.56400
O960        O  0.43422636  0.41592498  0.59289284    -0.55600
O961        O  0.90050398  0.69127823  0.00787125    -0.56800
C962        C  0.94978984  0.70221202  0.95025479     0.75900
O963        O  0.90777745  0.64171221  0.96774716    -0.57900
C964        C  0.88223299  0.67624076  0.51201203     0.75800
C965        C  0.88605653  0.67427355  0.91207658     0.78200
Cd966      Cd  0.90724815  0.67385301  0.96650986     1.37500
O967        O  0.93952094  0.70897136  0.96149711    -0.56800
O968        O  0.89925032  0.69037475  0.92630447    -0.55600
C969        C  0.91264030  0.64345064  0.99582032     0.78200
O970        O  0.88284395  0.65725415  0.92207868    -0.58000
O971        O  0.94068792  0.68284494  0.94774455    -0.56400
O972        O  0.87571776  0.66035984  0.99559423    -0.56400
O973        O  0.91419482  0.65851026  0.00982834    -0.55600
O974        O  0.78064993  0.66250668  0.67175370    -0.56800
C975        C  0.73923884  0.65250123  0.74796254     0.75900
O976        O  0.80255747  0.69771097  0.75489851    -0.57900
C977        C  0.79807929  0.67838805  0.66449424     0.75800
C978        C  0.76133547  0.70427100  0.68713833     0.78200
Cd979      Cd  0.77557558  0.68025294  0.71433202     1.37500
O980        O  0.74205992  0.64733947  0.72196430    -0.56800
O981        O  0.75189801  0.68484235  0.68471044    -0.55600
C982        C  0.80248940  0.68143776  0.76059076     0.78200
O983        O  0.77766969  0.71324971  0.70341811    -0.58000
O984        O  0.75297287  0.67031366  0.75768144    -0.56400
O985        O  0.80440077  0.69466492  0.67967480    -0.56400
O986        O  0.79024160  0.66549107  0.74513095    -0.55600
O987        O  0.68656849  0.90244856  0.74471217    -0.56800
C988        C  0.69467081  0.94585532  0.81876828     0.75900
O989        O  0.63710402  0.90747549  0.78114101    -0.57900
C990        C  0.67168891  0.88385222  0.74005815     0.75800
C991        C  0.67220120  0.88368008  0.83343559     0.78200
Cd992      Cd  0.66950977  0.90787276  0.78655231     1.37500
O993        O  0.70272633  0.94155456  0.79740946    -0.56800
O994        O  0.68759495  0.89726566  0.81829446    -0.55600
C995        C  0.64212218  0.91668380  0.75546952     0.78200
O996        O  0.65472459  0.88099602  0.82718004    -0.58000
O997        O  0.67556955  0.93321981  0.82349896    -0.56400
O998        O  0.65575090  0.87671735  0.75645391    -0.56400
O999        O  0.65943638  0.92164061  0.74477985    -0.55600
O1000       O  0.66687623  0.78733724  0.57926238    -0.56800
C1001       C  0.65710958  0.74704800  0.50473117     0.75900
O1002       O  0.70402360  0.80889209  0.49594715    -0.57900
C1003       C  0.68205453  0.80506546  0.58704226     0.75800
C1004       C  0.70949333  0.76866010  0.56762159     0.78200
Cd1005     Cd  0.68616347  0.78319226  0.53839741     1.37500
O1006       O  0.65266553  0.75033838  0.53091338    -0.56800
O1007       O  0.69011071  0.75972820  0.56918892    -0.55600
C1008       C  0.68807968  0.80954278  0.49098046     0.78200
O1009       O  0.71910025  0.78504902  0.55152965    -0.58000
O1010       O  0.67493148  0.76022608  0.49457621    -0.56400
O1011       O  0.69884366  0.81206150  0.57297173    -0.56400
O1012       O  0.67275236  0.79886361  0.50823219    -0.55600
O1013       O  0.00080818  0.45214803  0.92055956    -0.56800
C1014       C  0.98798206  0.40698441  0.85397866     0.75900
O1015       O  0.03272257  0.47402262  0.83392121    -0.57900
C1016       C  0.01474714  0.47122039  0.92396331     0.75800
C1017       C  0.05127201  0.44390089  0.89726744     0.78200
Cd1018     Cd  0.01794872  0.44816940  0.87614335     1.37500
O1019       O  0.98871065  0.41075645  0.88219716    -0.56800
O1020       O  0.03995791  0.44633661  0.91481049    -0.55600
C1021       C  0.01584688  0.47286453  0.82895836     0.78200
O1022       O  0.04838482  0.44477745  0.86896525    -0.58000
O1023       O  0.00035415  0.42195626  0.83712686    -0.56400
O1024       O  0.02954649  0.47923106  0.90529503    -0.56400
O1025       O  0.00064947  0.46055309  0.84552613    -0.55600
O1026       O  0.02030555  0.57099871  0.57963027    -0.56800
C1027       C  0.02758268  0.61575269  0.64491052     0.75900
O1028       O  0.96902303  0.57340628  0.62201710    -0.57900
C1029       C  0.00676568  0.55183463  0.57615064     0.75800
C1030       C  0.00273757  0.55138806  0.67491053     0.78200
Cd1031     Cd  0.00177471  0.57416321  0.62277470     1.37500
O1032       O  0.03562866  0.60851006  0.62848227    -0.56800
O1033       O  0.01871539  0.56561566  0.66158018    -0.55600
C1034       C  0.97037143  0.57837582  0.59409412     0.78200
O1035       O  0.98549963  0.54744574  0.66465174    -0.58000
O1036       O  0.00837891  0.60419939  0.64946949    -0.56400
O1037       O  0.99143473  0.54360309  0.59387572    -0.56400
O1038       O  0.98536738  0.58026368  0.57956495    -0.55600
O1039       O  0.91539020  0.27689260  0.72532545    -0.56800
C1040       C  0.88770794  0.22036504  0.66709712     0.75900
O1041       O  0.94504902  0.24396691  0.70514943    -0.57900
C1042       C  0.92389725  0.27992589  0.75141446     0.75800
C1043       C  0.88808436  0.21629477  0.76279702     0.78200
Cd1044     Cd  0.91364287  0.24434470  0.71688393     1.37500
O1045       O  0.88976863  0.23748215  0.67329175    -0.56800
O1046       O  0.88290989  0.22648411  0.74669722    -0.55600
C1047       C  0.95337011  0.26096655  0.69057443     0.78200
O1048       O  0.90559933  0.21896223  0.75768112    -0.58000
O1049       O  0.89779747  0.21517135  0.68330755    -0.56400
O1050       O  0.92699419  0.26634487  0.76129407    -0.56400
O1051       O  0.94350495  0.26970173  0.68912369    -0.55600
O1052       O  0.77930475  0.12663540  0.92157737    -0.56800
C1053       C  0.73749521  0.09697908  0.99775060     0.75900
O1054       O  0.77541449  0.07288192  0.95847355    -0.57900
C1055       C  0.79629805  0.12854086  0.91527695     0.75800
C1056       C  0.80000585  0.13038660  0.51214303     0.78200
Cd1057     Cd  0.77265975  0.10353688  0.96599266     1.37500
O1058       O  0.74012176  0.10252465  0.96993265    -0.56800
O1059       O  0.79155924  0.13578652  0.99331681    -0.55600
C1060       C  0.75811562  0.06251339  0.94480702     0.78200
O1061       O  0.79654599  0.11218804  0.00940110    -0.58000
O1062       O  0.75073592  0.09421201  0.00994573    -0.56400
O1063       O  0.80143655  0.11841305  0.93145489    -0.56400
O1064       O  0.74779209  0.07073419  0.94239680    -0.55600
O1065       O  0.41073092  0.98244505  0.89219798    -0.56800
C1066       C  0.46639072  0.01102984  0.82958790     0.75900
O1067       O  0.44642328  0.04692652  0.86127401    -0.57900
C1068       C  0.40772456  0.99173258  0.91327964     0.75800
C1069       C  0.47009480  0.01588197  0.92469436     0.78200
Cd1070     Cd  0.44385606  0.01443447  0.87730710     1.37500
O1071       O  0.44896801  0.99527598  0.83740513    -0.56800
O1072       O  0.45770038  0.99971688  0.90974668    -0.55600
C1073       C  0.43081518  0.03736136  0.84356792     0.78200
O1074       O  0.47066179  0.03228697  0.91783708    -0.58000
O1075       O  0.47264225  0.02782374  0.84334170    -0.56400
O1076       O  0.42122123  0.01082110  0.91694729    -0.56400
O1077       O  0.42162605  0.01785373  0.84240865    -0.55600
O1078       O  0.56964231  0.02629221  0.67228868    -0.56800
C1079       C  0.61498937  0.03987201  0.60505341     0.75900
O1080       O  0.57665083  0.97754823  0.62730342    -0.57900
C1081       C  0.55167836  0.01070065  0.67807023     0.75800
C1082       C  0.54936399  0.00854647  0.58334098     0.78200
Cd1083     Cd  0.57540904  0.00917602  0.63037241     1.37500
O1084       O  0.61073843  0.04196418  0.63205993    -0.56800
O1085       O  0.56126928  0.02437828  0.59916586    -0.55600
C1086       C  0.58186433  0.97841151  0.65501463     0.78200
O1087       O  0.54904691  0.99222839  0.58940288    -0.58000
O1088       O  0.60144342  0.02384374  0.59097356    -0.56400
O1089       O  0.54498693  0.99480313  0.66178668    -0.56400
O1090       O  0.58398424  0.99316467  0.67050961    -0.55600
O1091       O  0.13147696  0.78200529  0.83683339    -0.56800
C1092       C  0.08790291  0.73430597  0.76798221     0.75900
O1093       O  0.07400264  0.77363967  0.81281027    -0.57900
C1094       C  0.13274870  0.79868527  0.84359149     0.75800
C1095       C  0.12707652  0.79815874  0.74667410     0.78200
Cd1096     Cd  0.10459101  0.77308854  0.79754155     1.37500
O1097       O  0.10406387  0.74143943  0.78442037    -0.56800
O1098       O  0.13231106  0.78767646  0.76180535    -0.55600
C1099       C  0.06990385  0.76100679  0.83465617     0.78200
O1100       O  0.11085680  0.79726170  0.75502043    -0.58000
O1101       O  0.07979237  0.74481093  0.76641516    -0.56400
O1102       O  0.12143575  0.80303382  0.82880016    -0.56400
O1103       O  0.08158968  0.75433624  0.83829371    -0.55600
O1104       O  0.23613866  0.88975241  0.58971766    -0.56800
C1105       C  0.28610143  0.93000684  0.52816490     0.75900
O1106       O  0.22123509  0.90762293  0.50260117    -0.57900
C1107       C  0.21823848  0.88634485  0.59371098     0.75800
C1108       C  0.25248158  0.95121295  0.57641402     0.78200
Cd1109     Cd  0.24459269  0.91464505  0.54722624     1.37500
O1110       O  0.27495605  0.91185017  0.53897725    -0.56800
O1111       O  0.25413297  0.93759710  0.58989725    -0.55600
C1112       C  0.22156597  0.89207928  0.49424291     0.78200
O1113       O  0.24668914  0.94793907  0.54868468    -0.58000
O1114       O  0.27845295  0.94088334  0.52780122    -0.56400
O1115       O  0.21289822  0.89583332  0.57636288    -0.56400
O1116       O  0.23273467  0.88789076  0.50962216    -0.55600
C1117       C  0.16522466  0.82553298  0.68963932     0.21400
C1118       C  0.18408757  0.83289806  0.67502230    -0.38500
C1119       C  0.18951296  0.84807398  0.65270232     0.20400
C1120       C  0.17690996  0.85510594  0.64519640     0.23000
C1121       C  0.15793234  0.84762057  0.65969283    -0.39000
C1122       C  0.15264627  0.83264214  0.68238675     0.21800
N1123       N  0.15735012  0.81210488  0.71290526    -0.32300
C1124       C  0.13971897  0.81072301  0.72080400    -0.09800
C1125       C  0.13612859  0.82319896  0.70216779    -0.28600
N1126       N  0.18568394  0.86971588  0.62345912    -0.45200
C1127       C  0.20400489  0.87203669  0.61713446    -0.04500
C1128       C  0.20699599  0.85885662  0.63501554    -0.21900
H1129       H  0.19403678  0.82754641  0.68110319     0.19900
H1130       H  0.14824873  0.85338043  0.65419382     0.18700
H1131       H  0.12353438  0.82550784  0.70350660     0.15000
H1132       H  0.22009003  0.85727994  0.63493103     0.14900
H1133       H  0.16390550  0.80476053  0.72336799     0.33000
H1134       H  0.17959066  0.87765246  0.61353387     0.35800
C1135       C  0.17054789  0.82773496  0.90113774     0.21400
C1136       C  0.18691144  0.83330681  0.92143575    -0.38500
C1137       C  0.19407335  0.85155767  0.93788914     0.20400
C1138       C  0.18565064  0.86337497  0.93439121     0.23000
C1139       C  0.16935598  0.85782277  0.91410307    -0.39000
C1140       C  0.16219820  0.83961846  0.89773755     0.21800
N1141       N  0.16093949  0.81118477  0.88266411    -0.32300
C1142       C  0.14653312  0.81279695  0.86739525    -0.09800
C1143       C  0.14679999  0.83021042  0.87631545    -0.28600
N1144       N  0.19469265  0.87960101  0.95341048    -0.45200
C1145       C  0.20891071  0.87802153  0.96923061    -0.04500
C1146       C  0.20904438  0.86081185  0.96010526    -0.21900
H1147       H  0.19346381  0.82406462  0.92439154     0.19900
H1148       H  0.16263579  0.86692805  0.91139567     0.18700
H1149       H  0.13714860  0.83542648  0.86791755     0.15000
H1150       H  0.21839837  0.85543765  0.96923097     0.14900
H1151       H  0.16416157  0.79976297  0.88025760     0.33000
H1152       H  0.19099943  0.89065866  0.95610484     0.35800
C1153       C  0.33615505  0.96082533  0.99592695     0.21400
C1154       C  0.35390751  0.97930760  0.98643207    -0.38500
C1155       C  0.36632455  0.97723537  0.96583711     0.20400
C1156       C  0.36142997  0.95824937  0.95507899     0.23000
C1157       C  0.34362972  0.93965583  0.96474637    -0.39000
C1158       C  0.33125884  0.94170199  0.98578707     0.21800
N1159       N  0.32122355  0.95885150  0.01380356    -0.32300
C1160       C  0.30667961  0.93824767  0.51544343    -0.09800
C1161       C  0.31245604  0.92705090  0.99842249    -0.28600
N1162       N  0.37553573  0.96072412  0.93469489    -0.45200
C1163       C  0.38943439  0.98143684  0.93283789    -0.04500
C1164       C  0.38422025  0.99215383  0.95197000    -0.21900
H1165       H  0.35759187  0.99425621  0.99409917     0.19900
H1166       H  0.33953468  0.92476615  0.95616464     0.18700
H1167       H  0.30339079  0.91059371  0.99404943     0.15000
H1168       H  0.39231042  0.00872426  0.95495620     0.14900
H1169       H  0.32048406  0.97080852  0.02325011     0.33000
H1170       H  0.37569011  0.94914504  0.92282426     0.35800
C1171       C  0.50478159  0.02356962  0.98555985     0.21400
C1172       C  0.51933992  0.03399592  0.50895391    -0.38500
C1173       C  0.52442436  0.02209265  0.52653511     0.20400
C1174       C  0.51546728  0.00114366  0.52174665     0.23000
C1175       C  0.50098400  0.99072732  0.99826453    -0.39000
C1176       C  0.49585701  0.00263067  0.98074488     0.21800
N1177       N  0.49694205  0.03123051  0.96613125    -0.32300
C1178       C  0.48294368  0.01499783  0.94886169    -0.09800
C1179       C  0.48191549  0.99696761  0.95725182    -0.28600
N1180       N  0.52303094  0.99342422  0.54150892    -0.45200
C1181       C  0.53688448  0.00961972  0.55891621    -0.04500
C1182       C  0.53817995  0.02772599  0.55027348    -0.21900
H1183       H  0.52642105  0.05036521  0.51280974     0.19900
H1184       H  0.49384712  0.97433950  0.99449425     0.18700
H1185       H  0.47207768  0.98168227  0.94763225     0.15000
H1186       H  0.54801362  0.04300107  0.55993462     0.14900
H1187       H  0.50074326  0.04644858  0.96485438     0.33000
H1188       H  0.51909283  0.97815863  0.54298787     0.35800
C1189       C  0.51324048  0.00055969  0.73239983     0.21400
C1190       C  0.49432370  0.98890640  0.74770206    -0.38500
C1191       C  0.49080040  0.99955448  0.76991772     0.20400
C1192       C  0.50502805  0.02022305  0.77622136     0.23000
C1193       C  0.52395941  0.03182994  0.76103786    -0.39000
C1194       C  0.52750474  0.02118012  0.73894529     0.21800
N1195       N  0.52017143  0.99416401  0.71007447    -0.32300
C1196       C  0.53895957  0.01084501  0.70244157    -0.09800
C1197       C  0.54412678  0.02795531  0.72002198    -0.28600
N1198       N  0.49801227  0.02681375  0.79809722    -0.45200
C1199       C  0.47919986  0.01024596  0.80587357    -0.04500
C1200       C  0.47415467  0.99290839  0.78887366    -0.21900
H1201       H  0.48317349  0.97277832  0.74264061     0.19900
H1202       H  0.53508840  0.04797625  0.76602339     0.18700
H1203       H  0.55800541  0.04332567  0.71878134     0.15000
H1204       H  0.46023633  0.97757466  0.79021065     0.14900
H1205       H  0.51252844  0.97942916  0.70044642     0.33000
H1206       H  0.50559880  0.04168252  0.80725280     0.35800
C1207       C  0.68860613  0.08485569  0.52641642     0.21400
C1208       C  0.66725918  0.07610722  0.52496444    -0.38500
C1209       C  0.65694352  0.07031651  0.55290140     0.20400
C1210       C  0.66709912  0.07339853  0.58045096     0.23000
C1211       C  0.68852183  0.08218594  0.58191749    -0.39000
C1212       C  0.69878925  0.08756485  0.55383786     0.21800
N1213       N  0.70165955  0.08875314  0.00305783    -0.32300
C1214       C  0.71961097  0.09426865  0.51527408    -0.09800
C1215       C  0.71870816  0.09361237  0.54700443    -0.28600
N1216       N  0.65341908  0.06434800  0.60330961    -0.45200
C1217       C  0.63449954  0.05504595  0.58996478    -0.04500
C1218       C  0.63611564  0.05860407  0.55868268    -0.21900
H1219       H  0.65942586  0.07248415  0.00371784     0.19900
H1220       H  0.69638227  0.08349744  0.60314458     0.18700
H1221       H  0.73066253  0.09603981  0.56284433     0.15000
H1222       H  0.62367687  0.05211439  0.54209540     0.14900
H1223       H  0.69779331  0.08716650  0.97995283     0.33000
H1224       H  0.65668490  0.06300429  0.62601244     0.35800
C1225       C  0.83438557  0.15705503  0.57437532     0.21400
C1226       C  0.84700704  0.15982709  0.59942699    -0.38500
C1227       C  0.85651721  0.17911939  0.61371097     0.20400
C1228       C  0.85372358  0.19455347  0.60392290     0.23000
C1229       C  0.84104552  0.19176593  0.57884325    -0.39000
C1230       C  0.83150048  0.17242183  0.56453367     0.21800
N1231       N  0.82361530  0.14009480  0.55696916    -0.32300
C1232       C  0.81378086  0.14469353  0.53590545    -0.09800
C1233       C  0.81827943  0.16468494  0.53989667    -0.28600
N1234       N  0.86447997  0.21143859  0.62158995    -0.45200
C1235       C  0.87416359  0.20661211  0.64265682    -0.04500
C1236       C  0.86956320  0.18663012  0.63844432    -0.21900
H1237       H  0.84925329  0.14783778  0.60724961     0.19900
H1238       H  0.83874522  0.20373015  0.57108392     0.18700
H1239       H  0.81258920  0.17247044  0.52658767     0.15000
H1240       H  0.87497403  0.17862844  0.65184807     0.14900
H1241       H  0.82295730  0.12626073  0.55930413     0.33000
H1242       H  0.86521178  0.22531865  0.61945035     0.35800
C1243       C  0.83617353  0.15748482  0.86103092     0.21400
C1244       C  0.85477824  0.16428319  0.84594889    -0.38500
C1245       C  0.86009787  0.17911166  0.82308082     0.20400
C1246       C  0.84774358  0.18648497  0.81582673     0.23000
C1247       C  0.82918487  0.17973579  0.83096037    -0.39000
C1248       C  0.82387692  0.16493322  0.85384618     0.21800
N1249       N  0.82774156  0.14353377  0.88361077    -0.32300
C1250       C  0.80992436  0.14200983  0.89079896    -0.09800
C1251       C  0.80698059  0.15517957  0.87281126    -0.28600
N1252       N  0.85618625  0.20050922  0.79336872    -0.45200
C1253       C  0.87408566  0.20218138  0.78635611    -0.04500
C1254       C  0.87711448  0.18908125  0.80436321    -0.21900
H1255       H  0.86440450  0.15848845  0.85165542     0.19900
H1256       H  0.81960525  0.18559642  0.82533252     0.18700
H1257       H  0.79430701  0.15739361  0.87362159     0.15000
H1258       H  0.88999109  0.18716847  0.80387102     0.14900
H1259       H  0.83377831  0.13556329  0.89360481     0.33000
H1260       H  0.85020013  0.20857450  0.78354525     0.35800
C1261       C  0.04381283  0.66156642  0.68621077     0.21400
C1262       C  0.04047565  0.67486983  0.70273889    -0.38500
C1263       C  0.05700347  0.68937989  0.72081466     0.20400
C1264       C  0.07553411  0.69058618  0.72267608     0.23000
C1265       C  0.07896962  0.67728020  0.70579571    -0.39000
C1266       C  0.06234403  0.66272551  0.68733101     0.21800
N1267       N  0.02987148  0.64560205  0.66916629    -0.32300
C1268       C  0.03934244  0.63628961  0.65916197    -0.09800
C1269       C  0.05980272  0.64668958  0.66959924    -0.28600
N1270       N  0.08885451  0.70614592  0.74129311    -0.45200
C1271       C  0.07865800  0.71493202  0.75073566    -0.04500
C1272       C  0.05877801  0.70479727  0.73854710    -0.21900
H1273       H  0.02594711  0.67388268  0.70175892     0.19900
H1274       H  0.09339195  0.67807888  0.70712675     0.18700
H1275       H  0.07070889  0.64216555  0.66669329     0.15000
H1276       H  0.04738693  0.70870037  0.74140944     0.14900
H1277       H  0.01440715  0.64064209  0.66588056     0.33000
H1278       H  0.10415203  0.71107252  0.74610963     0.35800
C1279       C  0.95955244  0.35386256  0.83172639     0.21400
C1280       C  0.95317734  0.33297494  0.83309456    -0.38500
C1281       C  0.94402980  0.32146465  0.80644499     0.20400
C1282       C  0.94145023  0.33007787  0.78039325     0.23000
C1283       C  0.94813606  0.35100495  0.77885606    -0.39000
C1284       C  0.95725931  0.36249342  0.80546203     0.21800
N1285       N  0.96957506  0.36836684  0.85340507    -0.32300
C1286       C  0.97393900  0.38638210  0.84059965    -0.09800
C1287       C  0.96648818  0.38328901  0.81077705    -0.28600
N1288       N  0.93306712  0.31612265  0.75779735    -0.45200
C1289       C  0.93050837  0.29855291  0.76943103    -0.04500
C1290       C  0.93709643  0.30125557  0.79972570    -0.21900
H1291       H  0.95552140  0.32627478  0.85320807     0.19900
H1292       H  0.94673113  0.35794937  0.75824518     0.18700
H1293       H  0.96844828  0.39491848  0.79466315     0.15000
H1294       H  0.93742289  0.29012842  0.81449419     0.14900
H1295       H  0.97428503  0.36639410  0.87481328     0.33000
H1296       H  0.93010344  0.31864330  0.73549383     0.35800
C1297       C  0.00377432  0.49279965  0.98662211     0.21400
C1298       C  0.99256358  0.49349352  0.51069529    -0.38500
C1299       C  0.00118415  0.51264209  0.52507199     0.20400
C1300       C  0.01984900  0.53003913  0.51632604     0.23000
C1301       C  0.03142351  0.52953192  0.49236308    -0.39000
C1302       C  0.02258852  0.51008916  0.97807791     0.21800
N1303       N  0.99856463  0.47664598  0.96862566    -0.32300
C1304       C  0.01414720  0.48373571  0.94840761    -0.09800
C1305       C  0.02943904  0.50448514  0.95362747    -0.28600
N1306       N  0.02437945  0.54643736  0.53331835    -0.45200
C1307       C  0.00843780  0.53930139  0.55293516    -0.04500
C1308       C  0.99373278  0.51833849  0.54850916    -0.21900
H1309       H  0.97786790  0.48001709  0.51746562     0.19900
H1310       H  0.04599031  0.54273147  0.98585793     0.18700
H1311       H  0.04355206  0.51420334  0.94099753     0.15000
H1312       H  0.97943252  0.50860537  0.56072139     0.14900
H1313       H  0.98516014  0.46181697  0.96979632     0.33000
H1314       H  0.03739870  0.56148867  0.53162813     0.35800
C1315       C  0.02089464  0.50808323  0.77088758     0.21400
C1316       C  0.03107919  0.52437922  0.74992014    -0.38500
C1317       C  0.01844122  0.52888890  0.73313207     0.20400
C1318       C  0.99722190  0.51799212  0.73673912     0.23000
C1319       C  0.98702189  0.50178429  0.75799845    -0.39000
C1320       C  0.99970897  0.49731664  0.77489695     0.21800
N1321       N  0.02943198  0.50063870  0.78927560    -0.32300
C1322       C  0.01357274  0.48510966  0.80529412    -0.09800
C1323       C  0.99481348  0.48258114  0.79698987    -0.28600
N1324       N  0.98870231  0.52477020  0.71691471    -0.45200
C1325       C  0.00468392  0.54009438  0.70065993    -0.04500
C1326       C  0.02342788  0.54315816  0.71033648    -0.21900
H1327       H  0.04762000  0.53277765  0.74662634     0.19900
H1328       H  0.97043624  0.49313595  0.76092001     0.18700
H1329       H  0.97963656  0.47143436  0.80593956     0.15000
H1330       H  0.03864195  0.55398304  0.70122050     0.14900
H1331       H  0.04506134  0.50590219  0.79101725     0.33000
H1332       H  0.97301924  0.51906305  0.71418279     0.35800
C1333       C  0.60817817  0.93176393  0.72889270     0.21400
C1334       C  0.59587225  0.93994044  0.73152573    -0.38500
C1335       C  0.59212469  0.94718200  0.70441111     0.20400
C1336       C  0.59967858  0.94600346  0.67659541     0.23000
C1337       C  0.61209273  0.93794161  0.67399349    -0.39000
C1338       C  0.61618255  0.93107512  0.70121633     0.21800
N1339       N  0.61558084  0.92573482  0.75167309    -0.32300
C1340       C  0.62871747  0.92158720  0.73848378    -0.09800
C1341       C  0.62942964  0.92466438  0.70704904    -0.28600
N1342       N  0.59554151  0.95564378  0.65477646    -0.45200
C1343       C  0.58574347  0.96343065  0.66898081    -0.04500
C1344       C  0.58321040  0.95834971  0.69986196    -0.21900
H1345       H  0.59051114  0.94154396  0.75332841     0.19900
H1346       H  0.61894949  0.93800356  0.65260917     0.18700
H1347       H  0.63904392  0.92325596  0.69083440     0.15000
H1348       H  0.57692150  0.96334890  0.71703349     0.14900
H1349       H  0.61283907  0.92563843  0.77491449     0.33000
H1350       H  0.60054418  0.95821963  0.63223259     0.35800
C1351       C  0.68517955  0.86122874  0.68220917     0.21400
C1352       C  0.69805174  0.86021444  0.66106925    -0.38500
C1353       C  0.68865394  0.84239062  0.64307338     0.20400
C1354       C  0.66799950  0.82673587  0.64587414     0.23000
C1355       C  0.65510118  0.82774608  0.66707050    -0.39000
C1356       C  0.66452623  0.84558976  0.68514553     0.21800
N1357       N  0.69034159  0.87674510  0.70149538    -0.32300
C1358       C  0.67286507  0.87100392  0.71679831    -0.09800
C1359       C  0.65643973  0.85158596  0.70743792    -0.28600
N1360       N  0.66290359  0.81134974  0.62626576    -0.45200
C1361       C  0.68048170  0.81727666  0.61101989    -0.04500
C1362       C  0.69682660  0.83657966  0.62076199    -0.21900
H1363       H  0.71419462  0.87243040  0.65876359     0.19900
H1364       H  0.63894125  0.81556575  0.66930273     0.18700
H1365       H  0.64067509  0.84317683  0.71550214     0.15000
H1366       H  0.71259408  0.84514557  0.61269798     0.14900
H1367       H  0.70482920  0.89046094  0.70396972     0.33000
H1368       H  0.64842440  0.79766958  0.62348957     0.35800
C1369       C  0.66874068  0.85083212  0.89406089     0.21400
C1370       C  0.65928507  0.83625802  0.91745320    -0.38500
C1371       C  0.67230483  0.83238481  0.93432612     0.20400
C1372       C  0.69318617  0.84203567  0.92839489     0.23000
C1373       C  0.70273091  0.85677040  0.90497677    -0.39000
C1374       C  0.68966828  0.86079139  0.88815436     0.21800
N1375       N  0.65970063  0.85743790  0.87514126    -0.32300
C1376       C  0.67500563  0.87184654  0.85714536    -0.09800
C1377       C  0.69390005  0.87434012  0.86449080    -0.28600
N1378       N  0.70197159  0.83529646  0.94780354    -0.45200
C1379       C  0.68643572  0.82142197  0.96617746    -0.04500
C1380       C  0.66783765  0.81929855  0.95843930    -0.21900
H1381       H  0.64297501  0.82856217  0.92230323     0.19900
H1382       H  0.71907099  0.86457686  0.90028432     0.18700
H1383       H  0.70876371  0.88482865  0.85410063     0.15000
H1384       H  0.65291480  0.80930369  0.96897261     0.14900
H1385       H  0.64416928  0.85264562  0.87475740     0.33000
H1386       H  0.71742512  0.83983959  0.94855621     0.35800
C1387       C  0.71169753  0.98530430  0.87436931     0.21400
C1388       C  0.70897373  0.99523918  0.89848378    -0.38500
C1389       C  0.72694065  0.01261644  0.90998370     0.20400
C1390       C  0.74633504  0.01972317  0.89846178     0.23000
C1391       C  0.74908509  0.00973095  0.87399442    -0.39000
C1392       C  0.73091787  0.99213416  0.86239445     0.21800
N1393       N  0.69681152  0.96852573  0.85974392    -0.32300
C1394       C  0.70632863  0.96428941  0.83817026    -0.09800
C1395       C  0.72771935  0.97872368  0.83892388    -0.28600
N1396       N  0.76062071  0.03770094  0.91188434    -0.45200
C1397       C  0.75001976  0.04203325  0.93155126    -0.04500
C1398       C  0.72906464  0.02663859  0.93109563    -0.21900
H1399       H  0.69382796  0.99005272  0.90723121     0.19900
H1400       H  0.76413078  0.01543651  0.86437771     0.18700
H1401       H  0.73929477  0.97913830  0.82470135     0.15000
H1402       H  0.71678024  0.02662059  0.94277251     0.14900
H1403       H  0.68101632  0.96024922  0.86447412     0.33000
H1404       H  0.77619447  0.04730350  0.90608725     0.35800
C1405       C  0.72154496  0.73722475  0.61072310     0.21400
C1406       C  0.71672864  0.71927862  0.62638768    -0.38500
C1407       C  0.73291002  0.72058526  0.64300996     0.20400
C1408       C  0.75249620  0.73844636  0.64421638     0.23000
C1409       C  0.75742652  0.75646958  0.62808418    -0.39000
C1410       C  0.74111727  0.75514313  0.61117797     0.21800
N1411       N  0.70845182  0.73991416  0.59442722    -0.32300
C1412       C  0.71951924  0.75964806  0.58408838    -0.09800
C1413       C  0.74012474  0.76973020  0.59381500    -0.28600
N1414       N  0.76512411  0.73539181  0.66157686    -0.45200
C1415       C  0.75342399  0.71538113  0.67095425    -0.04500
C1416       C  0.73328524  0.70572604  0.65984325    -0.21900
H1417       H  0.70140631  0.70529433  0.62576924     0.19900
H1418       H  0.77273327  0.77046004  0.62877448     0.18700
H1419       H  0.75238663  0.78569923  0.58989911     0.15000
H1420       H  0.72074727  0.68975662  0.66293965     0.14900
H1421       H  0.69268702  0.72902465  0.59110139     0.33000
H1422       H  0.78086202  0.74592402  0.66570522     0.35800
C1423       C  0.92699898  0.60834647  0.51939214     0.21400
C1424       C  0.93561062  0.59644250  0.51614853    -0.38500
C1425       C  0.94159792  0.59125003  0.54328102     0.20400
C1426       C  0.93888365  0.59713961  0.57157504     0.23000
C1427       C  0.93052981  0.60926429  0.57478693    -0.39000
C1428       C  0.92483419  0.61471109  0.54764339     0.21800
N1429       N  0.92219082  0.61717395  0.99759370    -0.32300
C1430       C  0.91647669  0.62878331  0.51114121    -0.09800
C1431       C  0.91818657  0.62785559  0.54269707    -0.28600
N1432       N  0.94732240  0.59170857  0.59359523    -0.45200
C1433       C  0.95593873  0.58275933  0.57920121    -0.04500
C1434       C  0.95258199  0.58209787  0.54782210    -0.21900
H1435       H  0.93882093  0.59279891  0.99451904     0.19900
H1436       H  0.92938087  0.61480791  0.59672600     0.18700
H1437       H  0.91584798  0.63645298  0.55966674     0.15000
H1438       H  0.95857897  0.57688719  0.53050676     0.14900
H1439       H  0.92326382  0.61578214  0.97417933     0.33000
H1440       H  0.94861997  0.59537576  0.61667423     0.35800
C1441       C  0.85754500  0.68703743  0.57054642     0.21400
C1442       C  0.85563697  0.69865565  0.59304973    -0.38500
C1443       C  0.83692397  0.68841025  0.60897685     0.20400
C1444       C  0.82124449  0.66812601  0.60302766     0.23000
C1445       C  0.82307056  0.65654766  0.58030749    -0.39000
C1446       C  0.84181988  0.66680763  0.56436426     0.21800
N1447       N  0.87400773  0.69306793  0.55278387    -0.32300
C1448       C  0.86870361  0.67657009  0.53508451    -0.09800
C1449       C  0.84873476  0.65993154  0.54160081    -0.28600
N1450       N  0.80523394  0.66182982  0.62192378    -0.45200
C1451       C  0.81079237  0.67829481  0.63987993    -0.04500
C1452       C  0.83042383  0.69512707  0.63246239    -0.21900
H1453       H  0.86791922  0.71444009  0.59805189     0.19900
H1454       H  0.81090621  0.64066190  0.57562535     0.18700
H1455       H  0.84047709  0.64477172  0.53125431     0.15000
H1456       H  0.83890267  0.71018977  0.64310875     0.14900
H1457       H  0.88799004  0.70746353  0.55277556     0.33000
H1458       H  0.79148160  0.64725008  0.62269909     0.35800
C1459       C  0.85171183  0.66714029  0.85104357     0.21400
C1460       C  0.83490965  0.65615626  0.83099941    -0.38500
C1461       C  0.82947431  0.66809483  0.81422386     0.20400
C1462       C  0.83982297  0.68934810  0.81724885     0.23000
C1463       C  0.85669521  0.70035580  0.83721331    -0.39000
C1464       C  0.86222813  0.68842183  0.85385475     0.21800
N1465       N  0.85933201  0.65929849  0.87053476    -0.32300
C1466       C  0.87477902  0.67572569  0.88592921    -0.09800
C1467       C  0.87714601  0.69414019  0.87594481    -0.28600
N1468       N  0.83145295  0.69701834  0.79888508    -0.45200
C1469       C  0.81577948  0.68048903  0.78393743    -0.04500
C1470       C  0.81409909  0.66223550  0.79292157    -0.21900
H1471       H  0.82655904  0.63951397  0.82880638     0.19900
H1472       H  0.86479167  0.71695129  0.83983407     0.18700
H1473       H  0.88777035  0.70955445  0.88466396     0.15000
H1474       H  0.80309935  0.64673036  0.78483816     0.14900
H1475       H  0.85388785  0.64371433  0.87392012     0.33000
H1476       H  0.83623355  0.71249251  0.79641340     0.35800
C1477       C  0.02611865  0.75039758  0.87790250     0.21400
C1478       C  0.00931295  0.75155909  0.88663098    -0.38500
C1479       C  0.99663636  0.73757031  0.90947351     0.20400
C1480       C  0.00039361  0.72344458  0.92229939     0.23000
C1481       C  0.01721623  0.72241997  0.91380489    -0.39000
C1482       C  0.02986592  0.73641282  0.89124916     0.21800
N1483       N  0.03992297  0.76120102  0.85575871    -0.32300
C1484       C  0.05244845  0.75394694  0.85531487    -0.09800
C1485       C  0.04667837  0.73857422  0.87714609    -0.28600
N1486       N  0.98486191  0.71017237  0.94054731    -0.45200
C1487       C  0.97105575  0.71580049  0.93950805    -0.04500
C1488       C  0.97795961  0.73304003  0.92074628    -0.21900
H1489       H  0.00593668  0.76203740  0.87572112     0.19900
H1490       H  0.01982431  0.71101668  0.92326412     0.18700
H1491       H  0.05364164  0.72984690  0.88167422     0.15000
H1492       H  0.96947670  0.73988381  0.91378359     0.14900
H1493       H  0.04066481  0.77258494  0.84172216     0.33000
H1494       H  0.98304659  0.69715614  0.95133640     0.35800
C1495       C  0.62904426  0.70728687  0.95021628     0.21400
C1496       C  0.62599164  0.69753292  0.92201556    -0.38500
C1497       C  0.61214060  0.67596989  0.92203984     0.20400
C1498       C  0.60228619  0.66509472  0.94829392     0.23000
C1499       C  0.60501019  0.67486695  0.97624844    -0.39000
C1500       C  0.61869183  0.69635650  0.97617395     0.21800
N1501       N  0.64324167  0.72710394  0.95708061    -0.32300
C1502       C  0.64180704  0.72872361  0.98752172    -0.09800
C1503       C  0.62646269  0.71012999  0.49925318    -0.28600
N1504       N  0.59226527  0.64470426  0.94356155    -0.45200
C1505       C  0.59562849  0.64244677  0.91413157    -0.04500
C1506       C  0.60768852  0.66158688  0.89968294    -0.21900
H1507       H  0.63464286  0.70595013  0.90198604     0.19900
H1508       H  0.59681245  0.66656752  0.49565982     0.18700
H1509       H  0.62216729  0.70667566  0.52295062     0.15000
H1510       H  0.61392609  0.66457599  0.87691465     0.14900
H1511       H  0.65394477  0.73856295  0.94228104     0.33000
H1512       H  0.58463066  0.63302546  0.95988898     0.35800
C1513       C  0.65902975  0.59869406  0.81085614     0.21400
C1514       C  0.66794825  0.60046216  0.78238812    -0.38500
C1515       C  0.68927304  0.61505343  0.78051200     0.20400
C1516       C  0.70077757  0.62696327  0.80518678     0.23000
C1517       C  0.69195856  0.62483962  0.83383991    -0.39000
C1518       C  0.67063681  0.61024317  0.83573057     0.21800
N1519       N  0.63879062  0.58841455  0.81710697    -0.32300
C1520       C  0.63747229  0.59342313  0.84608726    -0.09800
C1521       C  0.65701920  0.60670501  0.85870781    -0.28600
N1522       N  0.72011367  0.64141181  0.79669889    -0.45200
C1523       C  0.72099650  0.63863920  0.76649300    -0.04500
C1524       C  0.70213196  0.62218178  0.75557356    -0.21900
H1525       H  0.65874280  0.59203417  0.76267877     0.19900
H1526       H  0.70081152  0.63474311  0.85274728     0.18700
H1527       H  0.66067602  0.61445838  0.88045187     0.15000
H1528       H  0.69804128  0.61701400  0.73226655     0.14900
H1529       H  0.62658804  0.57974652  0.80185867     0.33000
H1530       H  0.73180920  0.65294305  0.81039727     0.35800
C1531       C  0.52892105  0.52143027  0.99194089     0.21400
C1532       C  0.52520033  0.50671659  0.01424141    -0.38500
C1533       C  0.50626870  0.49842262  0.53040175     0.20400
C1534       C  0.49213554  0.50374907  0.52400326     0.23000
C1535       C  0.49578059  0.51837206  0.50155776    -0.39000
C1536       C  0.51502877  0.52713081  0.98596412     0.21800
N1537       N  0.54529364  0.53146891  0.97339632    -0.32300
C1538       C  0.54170074  0.54355976  0.95547012    -0.09800
C1539       C  0.52305416  0.54135623  0.96268660    -0.28600
N1540       N  0.47548240  0.49319461  0.54195739    -0.45200
C1541       C  0.47920346  0.48119959  0.55991797    -0.04500
C1542       C  0.49817713  0.48398326  0.55333104    -0.21900
H1543       H  0.53598752  0.50218388  0.01895588     0.19900
H1544       H  0.48477125  0.52254815  0.49637059     0.18700
H1545       H  0.51615496  0.54890057  0.95197498     0.15000
H1546       H  0.50518885  0.47657200  0.56411944     0.14900
H1547       H  0.55791731  0.52994143  0.97263017     0.33000
H1548       H  0.46256531  0.49425749  0.54224028     0.35800
C1549       C  0.51945339  0.51572635  0.78588416     0.21400
C1550       C  0.51142539  0.49626724  0.77272691    -0.38500
C1551       C  0.49973434  0.49240101  0.74614438     0.20400
C1552       C  0.49620993  0.50680336  0.73383960     0.23000
C1553       C  0.50416265  0.52624985  0.74709635    -0.39000
C1554       C  0.51601819  0.53018915  0.77355840     0.21800
N1555       N  0.53180682  0.52340820  0.81036353    -0.32300
C1556       C  0.53642845  0.54293923  0.81359596    -0.09800
C1557       C  0.52679451  0.54777090  0.79117485    -0.28600
N1558       N  0.48484101  0.49949617  0.70832431    -0.45200
C1559       C  0.48111613  0.48033898  0.70430628    -0.04500
C1560       C  0.49014802  0.47532202  0.72744270    -0.21900
H1561       H  0.51436549  0.48510634  0.78222315     0.19900
H1562       H  0.50160092  0.53758562  0.73723526     0.18700
H1563       H  0.52799490  0.56229804  0.78773222     0.15000
H1564       H  0.48963879  0.46110198  0.73029842     0.14900
H1565       H  0.53723790  0.51599281  0.82359680     0.33000
H1566       H  0.47982696  0.50705200  0.69453612     0.35800
C1567       C  0.39036347  0.06881109  0.76510064     0.16000
C1568       C  0.38710462  0.05035684  0.77676046    -0.38500
C1569       C  0.40313050  0.05225166  0.79452468     0.20400
C1570       C  0.42117934  0.07110656  0.80048120     0.23000
C1571       C  0.42456244  0.08974728  0.78848283    -0.39000
C1572       C  0.40836829  0.08784653  0.77047316     0.21800
N1573       N  0.37656693  0.07096803  0.74985333    -0.32300
C1574       C  0.38553788  0.09149389  0.74533738    -0.09800
C1575       C  0.40559616  0.10266360  0.75747774    -0.28600
N1576       N  0.43359756  0.06850870  0.81916737    -0.45200
C1577       C  0.42322693  0.04784751  0.82480024    -0.04500
C1578       C  0.40426042  0.03730281  0.80972036    -0.21900
H1579       H  0.37281365  0.03558859  0.77295365     0.19900
H1580       H  0.43845588  0.10460670  0.79346470     0.18700
H1581       H  0.41601275  0.11929583  0.75874080     0.15000
H1582       H  0.39270696  0.02084916  0.81009659     0.14900
H1583       H  0.36143964  0.05917351  0.74423078     0.33000
H1584       H  0.44814147  0.07997666  0.82747693     0.35800
C1585       C  0.27141383  0.00225016  0.60264402     0.21400
C1586       C  0.28271117  0.02393003  0.60089409    -0.38500
C1587       C  0.28792017  0.03435215  0.62886337     0.20400
C1588       C  0.28219237  0.02401591  0.65651964     0.23000
C1589       C  0.27117109  0.00235526  0.65827180    -0.39000
C1590       C  0.26610215  0.99194868  0.63033296     0.21800
N1591       N  0.26597727  0.98886299  0.57950761    -0.32300
C1592       C  0.25752748  0.96999095  0.59268937    -0.09800
C1593       C  0.25726147  0.97129889  0.62428149    -0.28600
N1594       N  0.29021229  0.03748690  0.67979800    -0.45200
C1595       C  0.30145862  0.05651821  0.66684152    -0.04500
C1596       C  0.30029814  0.05516562  0.63515234    -0.21900
H1597       H  0.28773384  0.03210881  0.57938977     0.19900
H1598       H  0.26747533  0.99422605  0.67982511     0.18700
H1599       H  0.25226469  0.95891826  0.64068143     0.15000
H1600       H  0.30838932  0.06768894  0.61890936     0.14900
H1601       H  0.26907040  0.99248201  0.55642626     0.33000
H1602       H  0.28926829  0.03390365  0.70294683     0.35800
C1603       C  0.35151273  0.19345891  0.56636378     0.21400
C1604       C  0.36484076  0.18925223  0.58190009    -0.38500
C1605       C  0.35605080  0.17518120  0.60617200     0.20400
C1606       C  0.33558764  0.16616150  0.61428627     0.23000
C1607       C  0.32225797  0.17029927  0.59867001    -0.39000
C1608       C  0.33102163  0.18432402  0.57438409     0.21800
N1609       N  0.35611796  0.20621992  0.54255587    -0.32300
C1610       C  0.33849063  0.20525027  0.53527031    -0.09800
C1611       C  0.32243549  0.19174712  0.55465396    -0.28600
N1612       N  0.33087720  0.15329160  0.63796155    -0.45200
C1613       C  0.34834037  0.15389516  0.64491296    -0.04500
C1614       C  0.36446255  0.16740622  0.62559354    -0.21900
H1615       H  0.38083677  0.19636018  0.57547977     0.19900
H1616       H  0.30623129  0.16309965  0.60497768     0.18700
H1617       H  0.30670153  0.18791152  0.55437375     0.15000
H1618       H  0.38007515  0.17090145  0.62558627     0.14900
H1619       H  0.37045458  0.21512715  0.53191884     0.33000
H1620       H  0.31648311  0.14428876  0.64841066     0.35800
C1621       C  0.35279924  0.19518698  0.85681775     0.21400
C1622       C  0.36522074  0.19202444  0.83760781    -0.38500
C1623       C  0.35500530  0.17326378  0.82166329     0.20400
C1624       C  0.33399458  0.15882309  0.82438646     0.23000
C1625       C  0.32154897  0.16204598  0.84342235    -0.39000
C1626       C  0.33179441  0.18071986  0.85956367     0.21800
N1627       N  0.35888597  0.21139673  0.87525257    -0.32300
C1628       C  0.34162040  0.20712950  0.88990795    -0.09800
C1629       C  0.32442547  0.18819451  0.88061636    -0.28600
N1630       N  0.32794060  0.14248573  0.80627654    -0.45200
C1631       C  0.34522269  0.14661784  0.79184102    -0.04500
C1632       C  0.36242060  0.16560272  0.80098574    -0.21900
H1633       H  0.38164399  0.20327493  0.83537717     0.19900
H1634       H  0.30512688  0.15078921  0.84565975     0.18700
H1635       H  0.30873107  0.18067647  0.88876109     0.15000
H1636       H  0.37809323  0.17312806  0.79274441     0.14900
H1637       H  0.37388960  0.22430146  0.87819114     0.33000
H1638       H  0.31290589  0.12966276  0.80319021     0.35800
C1639       C  0.40062795  0.32755003  0.53322122     0.21400
C1640       C  0.41753510  0.34811653  0.53495434    -0.38500
C1641       C  0.41924544  0.35858986  0.56189746     0.20400
C1642       C  0.40541967  0.34920913  0.58563256     0.23000
C1643       C  0.38842628  0.32867050  0.58380255    -0.39000
C1644       C  0.38651765  0.31831571  0.55664002     0.21800
N1645       N  0.39479065  0.31420303  0.01014021    -0.32300
C1646       C  0.37660085  0.29745158  0.51725933    -0.09800
C1647       C  0.37100465  0.29904688  0.54668114    -0.28600
N1648       N  0.40930105  0.36303840  0.60745612    -0.45200
C1649       C  0.42538507  0.38142221  0.59718772    -0.04500
C1650       C  0.43205547  0.37922751  0.56896451    -0.21900
H1651       H  0.42826143  0.35501962  0.01697116     0.19900
H1652       H  0.37700797  0.32157829  0.60163590     0.18700
H1653       H  0.35719377  0.28778302  0.55886534     0.15000
H1654       H  0.44364033  0.39140552  0.55449042     0.14900
H1655       H  0.40237848  0.31721741  0.98935092     0.33000
H1656       H  0.40038304  0.36053052  0.62670346     0.35800
C1657       C  0.08198616  0.43265916  0.94437914     0.21400
C1658       C  0.08941902  0.43014722  0.97236827    -0.38500
C1659       C  0.09620108  0.41653521  0.97236021     0.20400
C1660       C  0.09539580  0.40607369  0.94642766     0.23000
C1661       C  0.08824708  0.40882431  0.91835334    -0.39000
C1662       C  0.08165762  0.42258353  0.91829009     0.21800
N1663       N  0.07247800  0.44274258  0.93936695    -0.32300
C1664       C  0.06609746  0.43920707  0.90988085    -0.09800
C1665       C  0.07178188  0.42687788  0.89584526    -0.28600
N1666       N  0.10000695  0.39198331  0.95315357    -0.45200
C1667       C  0.10381005  0.39306220  0.48398554    -0.04500
C1668       C  0.10156433  0.40817258  0.49698163    -0.21900
H1669       H  0.08791622  0.43622058  0.49417938     0.19900
H1670       H  0.08689285  0.40005059  0.89838481     0.18700
H1671       H  0.06754126  0.42033841  0.87323607     0.15000
H1672       H  0.10211761  0.41159630  0.52092904     0.14900
H1673       H  0.06936017  0.45049489  0.95556725     0.33000
H1674       H  0.09946531  0.38122679  0.93825071     0.35800
C1675       C  0.02837644  0.30765355  0.61465263     0.21400
C1676       C  0.01630672  0.31104223  0.63414805    -0.38500
C1677       C  0.00070450  0.29359096  0.64955766     0.20400
C1678       C  0.99739424  0.27417523  0.64617476     0.23000
C1679       C  0.00948679  0.27076315  0.62643929    -0.39000
C1680       C  0.02508374  0.28829221  0.61067638     0.21800
N1681       N  0.04424204  0.32186048  0.59774371    -0.32300
C1682       C  0.05122236  0.31165083  0.58260559    -0.09800
C1683       C  0.03960063  0.29058441  0.58993147    -0.28600
N1684       N  0.98077801  0.25998513  0.66225974    -0.45200
C1685       C  0.97340972  0.27053819  0.67538277    -0.04500
C1686       C  0.98551081  0.29149577  0.66813511    -0.21900
H1687       H  0.01868851  0.32613938  0.63675519     0.19900
H1688       H  0.00676938  0.25557295  0.62326966     0.18700
H1689       H  0.04193022  0.27875671  0.58206547     0.15000
H1690       H  0.98284755  0.30340717  0.67430241     0.14900
H1691       H  0.05023284  0.33770231  0.59696417     0.33000
H1692       H  0.97410395  0.24401628  0.66266789     0.35800
C1693       C  0.31655438  0.38828332  0.70351436     0.21400
C1694       C  0.32676682  0.39051094  0.67614261    -0.38500
C1695       C  0.34799239  0.40564870  0.67596176     0.20400
C1696       C  0.35835045  0.41737332  0.70137870     0.23000
C1697       C  0.34807348  0.41531600  0.72871914    -0.39000
C1698       C  0.32671693  0.40040223  0.72870850     0.21800
N1699       N  0.29668176  0.37417146  0.70988741    -0.32300
C1700       C  0.29401739  0.37738339  0.73924143    -0.09800
C1701       C  0.31236821  0.39373174  0.75176968    -0.28600
N1702       N  0.37880467  0.42903211  0.69634923    -0.45200
C1703       C  0.38141654  0.42486362  0.66744958    -0.04500
C1704       C  0.36254037  0.41052639  0.65387937    -0.21900
H1705       H  0.31886309  0.38074318  0.65667701     0.19900
H1706       H  0.35620283  0.42421923  0.74876858     0.18700
H1707       H  0.31507549  0.39926040  0.77496554     0.15000
H1708       H  0.35998832  0.40336365  0.63181896     0.14900
H1709       H  0.28570234  0.36267763  0.69536337     0.33000
H1710       H  0.39036220  0.43848371  0.71206311     0.35800
C1711       C  0.28381754  0.29819981  0.85453510     0.21400
C1712       C  0.30216121  0.30212319  0.86786919    -0.38500
C1713       C  0.30046031  0.28591138  0.88502776     0.20400
C1714       C  0.28186423  0.26720915  0.88906270     0.23000
C1715       C  0.26339683  0.26325542  0.87558546    -0.39000
C1716       C  0.26513883  0.27948665  0.85796841     0.21800
N1717       N  0.28146835  0.31138396  0.83778339    -0.32300
C1718       C  0.26117352  0.30114835  0.83021180    -0.09800
C1719       C  0.25040991  0.28108622  0.84219113    -0.28600
N1720       N  0.28459338  0.25436665  0.90646640    -0.45200
C1721       C  0.30510319  0.26503358  0.91316232    -0.04500
C1722       C  0.31542797  0.28471198  0.90015261    -0.21900
H1723       H  0.31674011  0.31676414  0.86503599     0.19900
H1724       H  0.24880120  0.24866180  0.87855811     0.18700
H1725       H  0.23398191  0.26962396  0.84071549     0.15000
H1726       H  0.33177980  0.29652444  0.90141257     0.14900
H1727       H  0.29295472  0.32666619  0.83237145     0.33000
H1728       H  0.27335302  0.23920827  0.91282047     0.35800
C1729       C  0.18643530  0.34811248  0.68506224     0.21400
C1730       C  0.18014084  0.36058170  0.67218962    -0.38500
C1731       C  0.16774525  0.35272776  0.64596351     0.20400
C1732       C  0.16213575  0.33390998  0.63357536     0.23000
C1733       C  0.16847199  0.32147075  0.64641495    -0.39000
C1734       C  0.18081078  0.32928896  0.67268809     0.21800
N1735       N  0.19804045  0.35200309  0.71015274    -0.32300
C1736       C  0.19978835  0.33553984  0.71393680    -0.09800
C1737       C  0.18929086  0.32103398  0.69094314    -0.28600
N1738       N  0.15003526  0.32972303  0.60897796    -0.45200
C1739       C  0.14787358  0.34594618  0.60559844    -0.04500
C1740       C  0.15874657  0.36067555  0.62821070    -0.21900
H1741       H  0.18446370  0.37524562  0.68200293     0.19900
H1742       H  0.16397599  0.30670918  0.63678344     0.18700
H1743       H  0.18802215  0.30647004  0.68800988     0.15000
H1744       H  0.15968554  0.37505379  0.63146395     0.14900
H1745       H  0.20439272  0.36509508  0.72391805     0.33000
H1746       H  0.14348611  0.31651708  0.59542716     0.35800
C1747       C  0.17101242  0.35083284  0.93476793     0.21400
C1748       C  0.18984813  0.36187008  0.91914656    -0.38500
C1749       C  0.19309174  0.35044390  0.89797949     0.20400
C1750       C  0.17870589  0.32962502  0.89295289     0.23000
C1751       C  0.15987369  0.31863183  0.90850305    -0.39000
C1752       C  0.15656430  0.33006797  0.92948454     0.21800
N1753       N  0.16416802  0.35811073  0.95589303    -0.32300
C1754       C  0.14518846  0.34189305  0.96391802    -0.09800
C1755       C  0.13988227  0.32413770  0.94793144    -0.28600
N1756       N  0.18521756  0.32238597  0.87127115    -0.45200
C1757       C  0.20382545  0.33871635  0.86227985    -0.04500
C1758       C  0.20931748  0.35649845  0.87845144    -0.21900
H1759       H  0.20105221  0.37816142  0.92300445     0.19900
H1760       H  0.14854601  0.30240982  0.90435100     0.18700
H1761       H  0.12582286  0.30894169  0.94975494     0.15000
H1762       H  0.22307675  0.37183741  0.87579419     0.14900
H1763       H  0.17124745  0.37252710  0.46393570     0.33000
H1764       H  0.17729175  0.30735373  0.86267217     0.35800
loop_ 
_geom_bond_atom_site_label_1 
_geom_bond_atom_site_label_2 
_geom_bond_distance 
_geom_bond_site_symmetry_2 
_ccdc_geom_bond_type 
O1            C4   1.271       .  A
O1           Cd6   2.460       .  S
C2           O11   1.267       .  A
C2            O7   1.273       .  A
C2          C818   1.471       .  S
O3            C9   1.273       .  A
O3           Cd6   2.517       .  S
C4           O12   1.266       .  A
C4          C875   1.468       .  S
C5           O10   1.275       .  A
C5            O8   1.265       .  A
C5          C854   1.473       .  S
Cd6          O13   2.405       .  S
Cd6          O12   2.437       .  S
Cd6          O11   2.417       .  S
Cd6           O7   2.475       .  S
Cd6          O10   2.499       .  S
Cd6           O8   2.402       .  S
C9           O13   1.263       .  A
C9          C836   1.472       .  S
O14          C17   1.275       .  A
O14         Cd19   2.469   1_556  S
C15          O24   1.263       .  A
C15          O20   1.272       .  A
C15         C800   1.475       .  S
O16          C22   1.272       .  A
O16         Cd19   2.495       .  S
C17          O25   1.266   1_556  A
C17        C1754   1.467       .  S
C18          O23   1.272       .  A
C18          O21   1.267   1_554  A
C18         C785   1.481   1_554  S
Cd19         O26   2.430       .  S
Cd19         O25   2.405       .  S
Cd19         O24   2.416       .  S
Cd19         O20   2.531       .  S
Cd19         O23   2.499       .  S
Cd19         O21   2.463   1_554  S
C22          O26   1.264       .  A
C22         C857   1.474       .  S
O27          C30   1.273       .  A
O27         Cd32   2.477       .  S
C28          O37   1.268       .  A
C28          O33   1.274       .  A
C28        C1646   1.471       .  S
O29          C35   1.274       .  A
O29         Cd32   2.498       .  S
C30          O38   1.266       .  A
C30         C746   1.469       .  S
C31         O918   1.276       .  A
C31         O916   1.265   1_554  A
C31         C728   1.471       .  S
Cd32         O39   2.410       .  S
Cd32         O38   2.409       .  S
Cd32         O37   2.414       .  S
Cd32         O33   2.474       .  S
Cd32         O36   2.497       .  S
Cd32         O34   2.398       .  S
O34         C913   1.265       .  A
C35          O39   1.267       .  A
C35         C839   1.474       .  S
O36         C913   1.276       .  A
O40          C43   1.272       .  A
O40         Cd45   2.505       .  S
C41          O50   1.264       .  A
C41          O46   1.270       .  A
C41         C749   1.469       .  S
O42          C48   1.270       .  A
O42         Cd45   2.523       .  S
C43          O51   1.265       .  A
C43         C713   1.474       .  S
C44          O49   1.272       .  A
C44          O47   1.265       .  A
C44         C731   1.469       .  S
Cd45         O52   2.404       .  S
Cd45         O51   2.429       .  S
Cd45         O50   2.425       .  S
Cd45         O46   2.486       .  S
Cd45         O49   2.487       .  S
Cd45         O47   2.411       .  S
C48          O52   1.263       .  A
C48         C692   1.471       .  S
O53          C56   1.267       .  A
O53         Cd58   2.502       .  S
C54          O63   1.264       .  A
C54          O59   1.272       .  A
C54         C656   1.463       .  S
O55          C61   1.268       .  A
O55         Cd58   2.505       .  S
C56          O64   1.261       .  A
C56         C638   1.468       .  S
C57          O62   1.272       .  A
C57          O60   1.264       .  A
C57         C674   1.465       .  S
Cd58         O65   2.414       .  S
Cd58         O64   2.438       .  S
Cd58         O63   2.404       .  S
Cd58         O59   2.471       .  S
Cd58         O62   2.477       .  S
Cd58         O60   2.398       .  S
C61          O65   1.260       .  A
C61         C623   1.466       .  S
O66          C69   1.273       .  A
O66         Cd71   2.476       .  S
C67          O76   1.260       .  A
C67          O72   1.269       .  A
C67         C821   1.470       .  S
O68          C74   1.268       .  A
O68         Cd71   2.507       .  S
C69          O77   1.265       .  A
C69         C659   1.465       .  S
C70          O75   1.273       .  A
C70          O73   1.265       .  A
C70         C677   1.469       .  S
Cd71         O78   2.438       .  S
Cd71         O77   2.402       .  S
Cd71         O76   2.440       .  S
Cd71         O72   2.501       .  S
Cd71         O75   2.480       .  S
Cd71         O73   2.419       .  S
C74          O78   1.261       .  A
C74         C767   1.469       .  S
O79         C964   1.271       .  A
O79         Cd84   2.495       .  S
C80          O89   1.263       .  A
C80          O85   1.268       .  A
C80         C605   1.466       .  S
O81          C87   1.273       .  A
O81         Cd84   2.505       .  S
C82         O961   1.271       .  A
C82         O972   1.265   1_554  A
C82         C566   1.474       .  S
C83          O88   1.271       .  A
C83          O86   1.262       .  A
C83         C584   1.475       .  S
Cd84         O91   2.433       .  S
Cd84         O90   2.434       .  S
Cd84         O89   2.431       .  S
Cd84         O85   2.495       .  S
Cd84         O88   2.517       .  S
Cd84         O86   2.436       .  S
C87          O91   1.266       .  A
C87        C1430   1.477       .  S
O90         C964   1.265       .  A
O92          C95   1.272       .  A
O92         Cd97   2.491       .  S
C93         O102   1.268       .  A
C93          O98   1.273       .  A
C93         C641   1.470       .  S
O94         C100   1.275       .  A
O94         Cd97   2.499       .  S
C95         O103   1.265       .  A
C95         C569   1.472       .  S
C96         O101   1.273       .  A
C96          O99   1.265       .  A
C96         C533   1.472       .  S
Cd97        O104   2.400       .  S
Cd97        O103   2.417       .  S
Cd97        O102   2.421       .  S
Cd97         O98   2.470       .  S
Cd97        O101   2.506       .  S
Cd97         O99   2.408       .  S
C100        O104   1.266       .  A
C100        C587   1.474       .  S
O105        C108   1.274       .  A
O105       Cd110   2.440       .  S
C106        O115   1.266       .  A
C106        O111   1.273       .  A
C106        C512   1.472       .  S
O107        C113   1.274       .  A
O107       Cd110   2.493       .  S
C108        O116   1.269       .  A
C108        C476   1.467       .  S
C109        O114   1.276       .  A
C109        O112   1.265       .  A
C109        C494   1.469       .  S
Cd110       O117   2.432       .  S
Cd110       O116   2.424       .  S
Cd110       O115   2.390       .  S
Cd110       O111   2.504       .  S
Cd110       O114   2.483       .  S
Cd110       O112   2.399       .  S
C113        O117   1.267       .  A
C113        C458   1.475       .  S
O118        C121   1.270       .  A
O118       Cd123   2.479       .  S
C119        O128   1.267   1_554  A
C119        O124   1.271       .  A
C119       C1502   1.466   1_554  S
O120        C126   1.275       .  A
O120       Cd123   2.516   1_556  S
C121        O129   1.266       .  A
C121        C479   1.470       .  S
C122        O127   1.273       .  A
C122        O125   1.263       .  A
C122        C530   1.475       .  S
Cd123       O130   2.364       .  S
Cd123       O129   2.428       .  S
Cd123       O128   2.435   1_554  S
Cd123       O124   2.462       .  S
Cd123       O127   2.526       .  S
Cd123       O125   2.404       .  S
C126        O130   1.264   1_556  A
C126       C1379   1.469       .  S
O131        C134   1.272       .  A
O131       Cd136   2.482       .  S
C132        O141   1.261   1_655  A
C132        O137   1.271       .  A
C132        C404   1.475       .  S
O133        C139   1.273       .  A
O133       Cd136   2.495       .  S
C134        O142   1.266       .  A
C134        C422   1.469       .  S
C135        O140   1.269       .  A
C135        O138   1.261       .  A
C135        C782   1.478       .  S
Cd136       O143   2.417       .  S
Cd136       O142   2.429       .  S
Cd136       O141   2.427       .  S
Cd136       O137   2.532   1_455  S
Cd136       O140   2.528       .  S
Cd136       O138   2.447       .  S
C139        O143   1.265       .  A
C139        C440   1.472       .  S
O144        C147   1.272       .  A
O144       Cd149   2.481       .  S
C145        O154   1.263       .  A
C145        O150   1.271       .  A
C145        C386   1.472       .  S
O146        C152   1.271       .  A
O146       Cd149   2.498   1_655  S
C147        O155   1.265   1_455  A
C147        C425   1.466       .  S
C148        O153   1.271   1_455  A
C148        O151   1.263       .  A
C148        C443   1.477       .  S
Cd149       O156   2.450   1_455  S
Cd149       O155   2.406   1_455  S
Cd149       O154   2.399       .  S
Cd149       O150   2.524       .  S
Cd149       O153   2.525   1_455  S
Cd149       O151   2.432       .  S
C152        O156   1.265       .  A
C152        C551   1.476       .  S
O157        C160   1.274       .  A
O157       Cd162   2.472       .  S
C158        O167   1.264       .  A
C158        O163   1.273       .  A
C158        C353   1.469       .  S
O159        C165   1.272       .  A
O159       Cd162   2.507       .  S
C160        O168   1.268       .  A
C160        C407   1.472       .  S
C161        O166   1.274       .  A
C161        O164   1.266       .  A
C161        C371   1.465       .  S
Cd162       O169   2.394       .  S
Cd162       O168   2.421       .  S
Cd162       O167   2.397       .  S
Cd162       O163   2.495       .  S
Cd162       O166   2.466       .  S
Cd162       O164   2.394       .  S
C165        O169   1.263       .  A
C165        C803   1.469       .  S
O170        C173   1.271       .  A
O170       Cd175   2.493       .  S
C171        O180   1.266       .  A
C171        O176   1.273       .  A
C171       C1214   1.469       .  S
O172        C178   1.269       .  A
O172       Cd175   2.514       .  S
C173        O181   1.263       .  A
C173        C368   1.468       .  S
C174       O1061   1.273       .  A
C174       O1059   1.265   1_554  A
C174        C350   1.468       .  S
Cd175       O182   2.420       .  S
Cd175       O181   2.411       .  S
Cd175       O180   2.417       .  S
Cd175       O176   2.482       .  S
Cd175       O179   2.472       .  S
Cd175       O177   2.412       .  S
O177       C1056   1.265       .  A
C178        O182   1.264       .  A
C178        C515   1.469       .  S
O179       C1056   1.273       .  A
O183        C186   1.275       .  A
O183       Cd188   2.492   1_565  S
C184        O193   1.266       .  A
C184        O189   1.274   1_545  A
C184        C317   1.469       .  S
O185        C191   1.274       .  A
O185       Cd188   2.504       .  S
C186        O194   1.268   1_565  A
C186        C281   1.469       .  S
C187        O192   1.275       .  A
C187        O190   1.266   1_545  A
C187        C296   1.472       .  S
Cd188       O195   2.404       .  S
Cd188       O194   2.387       .  S
Cd188       O193   2.406       .  S
Cd188       O189   2.478   1_545  S
Cd188       O192   2.494       .  S
Cd188       O190   2.397   1_545  S
C191        O195   1.268       .  A
C191        C695   1.474       .  S
O196        C199   1.272       .  A
O196       Cd201   2.462       .  S
C197        O206   1.263       .  A
C197        O202   1.270       .  A
C197        C335   1.471       .  S
O198        C204   1.269       .  A
O198       Cd201   2.499   1_565  S
C199        O207   1.265   1_545  A
C199        C314   1.466       .  S
C200        O205   1.271   1_545  A
C200        O203   1.264       .  A
C200        C299   1.468       .  S
Cd201       O208   2.431   1_545  S
Cd201       O207   2.417   1_545  S
Cd201       O206   2.425       .  S
Cd201       O202   2.513       .  S
Cd201       O205   2.484   1_545  S
Cd201       O203   2.411       .  S
C204        O208   1.263       .  A
C204        C461   1.470       .  S
O209        C212   1.274       .  A
O209       Cd214   2.478       .  S
C210        O219   1.267       .  A
C210        O215   1.273       .  A
C210        C389   1.472       .  S
O211        C217   1.274       .  A
O211       Cd214   2.482       .  S
C212        O220   1.266       .  A
C212        C260   1.465       .  S
C213        O218   1.274       .  A
C213        O216   1.265       .  A
C213        C242   1.469       .  S
Cd214       O221   2.384       .  S
Cd214       O220   2.380       .  S
Cd214       O219   2.396       .  S
Cd214       O215   2.496       .  S
Cd214       O218   2.482       .  S
Cd214       O216   2.393       .  S
C217        O221   1.268       .  A
C217        C602   1.467       .  S
O222        C225   1.272       .  A
O222       Cd227   2.489       .  S
C223        O232   1.262       .  A
C223        O228   1.269       .  A
C223        C278   1.466       .  S
O224        C230   1.271   1_554  A
O224       Cd227   2.502       .  S
C225        O233   1.265       .  A
C225        C245   1.473       .  S
C226        O231   1.273       .  A
C226        O229   1.266       .  A
C226        C710   1.470       .  S
Cd227       O234   2.410       .  S
Cd227       O233   2.428       .  S
Cd227       O232   2.429       .  S
Cd227       O228   2.500       .  S
Cd227       O231   2.490       .  S
Cd227       O229   2.409       .  S
C230        O234   1.262   1_556  A
C230       C1145   1.468       .  S
C235        C240   1.384       .  A
C235        C236   1.403       .  A
C235        N241   1.340       .  A
C236        C237   1.401       .  A
C236        H247   1.082       .  S
C237        C246   1.380       .  A
C237        C238   1.384       .  A
C238        C239   1.406       .  A
C238        N244   1.343       .  A
C239        C240   1.404       .  A
C239        H248   1.082       .  S
C240        C243   1.383       .  A
N241        C242   1.355       .  A
N241        H251   1.045       .  S
C242        C243   1.395       .  A
C243        H249   1.082       .  S
N244        C245   1.357       .  A
N244        H252   1.045       .  S
C245        C246   1.394       .  A
C246        H250   1.082       .  S
C253        C258   1.385       .  A
C253        C254   1.402       .  A
C253        N259   1.346       .  A
C254        C255   1.404       .  A
C254        H265   1.082       .  S
C255        C264   1.374       .  A
C255        C256   1.385       .  A
C256        C257   1.400       .  A
C256        N262   1.345       .  A
C257        C258   1.401       .  A
C257        H266   1.082       .  S
C258        C261   1.371       .  A
N259        C260   1.355       .  A
N259        H269   1.045       .  S
C260        C261   1.393       .  A
C261        H267   1.083       .  S
N262        C263   1.354       .  A
N262        H270   1.045       .  S
C263       C1112   1.469       .  S
C263        C264   1.396       .  A
C264        H268   1.083       .  S
C271        C276   1.385       .  A
C271        C272   1.399       .  A
C271        N277   1.340       .  A
C272        C273   1.398       .  A
C272        H283   1.083       .  S
C273        C282   1.370       .  A
C273        C274   1.385       .  A
C274        C275   1.406       .  A
C274        N280   1.348       .  A
C275        C276   1.407       .  A
C275        H284   1.082       .  S
C276        C279   1.382       .  A
N277       C1160   1.354       .  A
N277        H287   1.045       .  S
C278       C1161   1.396   1_554  A
C278       N1159   1.353       .  A
C279       C1160   1.396       .  A
C279        H285   1.082       .  S
N280        C281   1.357       .  A
N280        H288   1.044       .  S
C281        C282   1.392       .  A
C282        H286   1.083   1_565  S
C289        C294   1.385       .  A
C289       C1172   1.402       .  A
C289        N295   1.347       .  A
C290        C291   1.404       .  A
C290       C1171   1.403   1_554  A
C290        H301   1.082       .  S
C291        C300   1.374       .  A
C291        C292   1.385       .  A
C292       C1175   1.402   1_544  A
C292        N298   1.346   1_545  A
C293        C294   1.404   1_565  A
C293       C1174   1.402   1_565  A
C293        H302   1.082       .  S
C294        C297   1.374   1_545  A
N295        C296   1.356       .  A
N295        H305   1.044       .  S
C296        C297   1.396   1_545  A
C297        H303   1.083       .  S
N298        C299   1.355   1_565  A
N298        H306   1.045       .  S
C299        C300   1.395       .  A
C300        H304   1.083       .  S
C307        C312   1.385       .  A
C307        C308   1.403   1_545  A
C307        N313   1.341   1_545  A
C308        C309   1.402       .  A
C308        H319   1.082       .  S
C309        C318   1.380       .  A
C309        C310   1.385   1_565  A
C310        C311   1.403       .  A
C310        N316   1.341       .  A
C311        C312   1.401       .  A
C311        H320   1.082       .  S
C312        C315   1.378       .  A
N313        C314   1.356   1_565  A
N313        H323   1.045       .  S
C314        C315   1.393       .  A
C315        H321   1.082       .  S
N316        C317   1.356       .  A
N316        H324   1.045       .  S
C317        C318   1.394   1_545  A
C318        H322   1.082       .  S
C325        C330   1.385       .  A
C325        C326   1.401       .  A
C325       N1213   1.345       .  A
C326        C327   1.402       .  A
C326       H1219   1.082       .  S
C327        C336   1.374       .  A
C327        C328   1.385       .  A
C328        C329   1.406       .  A
C328        N334   1.348       .  A
C329        C330   1.406       .  A
C329        H338   1.082       .  S
C330        C333   1.378       .  A
N331       C1207   1.345       .  A
N331       C1214   1.353       .  A
N331        H341   1.045       .  S
C332       C1053   1.469   1_554  S
C332        C333   1.396       .  A
C332       N1213   1.353       .  A
C333        H339   1.083       .  S
N334        C335   1.356       .  A
N334        H342   1.045       .  S
C335        C336   1.393       .  A
C336        H340   1.083       .  S
H337       C1208   1.082       .  S
C343        C348   1.385       .  A
C343        C344   1.400       .  A
C343        N349   1.344       .  A
C344        C345   1.401       .  A
C344        H355   1.082       .  S
C345        C354   1.372       .  A
C345        C346   1.385       .  A
C346        C347   1.404       .  A
C346        N352   1.347       .  A
C347        C348   1.405       .  A
C347        H356   1.082       .  S
C348        C351   1.376       .  A
N349        C350   1.353       .  A
N349        H359   1.045       .  S
C350        C351   1.396       .  A
C351        H357   1.082       .  S
N352        C353   1.355       .  A
N352        H360   1.045       .  S
C353        C354   1.394       .  A
C354        H358   1.083       .  S
C361        C366   1.385       .  A
C361        C362   1.403       .  A
C361        N367   1.340       .  A
C362        C363   1.400       .  A
C362        H373   1.082       .  S
C363        C372   1.379       .  A
C363        C364   1.385       .  A
C364        C365   1.403       .  A
C364        N370   1.340       .  A
C365        C366   1.401       .  A
C365        H374   1.082       .  S
C366        C369   1.380       .  A
N367        C368   1.356       .  A
N367        H377   1.045       .  S
C368        C369   1.394       .  A
C369        H375   1.082       .  S
N370        C371   1.355       .  A
N370        H378   1.045       .  S
C371        C372   1.393       .  A
C372        H376   1.082       .  S
C379        C384   1.384       .  A
C379        C380   1.398       .  A
C379        N385   1.339       .  A
C380        C381   1.397       .  A
C380        H391   1.083       .  S
C381        C390   1.371       .  A
C381        C382   1.384       .  A
C382        C383   1.411       .  A
C382        N388   1.350       .  A
C383        C384   1.411       .  A
C383        H392   1.082       .  S
C384        C387   1.388       .  A
N385        C386   1.353       .  A
N385        H395   1.045       .  S
C386        C387   1.400       .  A
C387        H393   1.082       .  S
N388        C389   1.359       .  A
N388        H396   1.044       .  S
C389        C390   1.391       .  A
C390        H394   1.083       .  S
C397        C402   1.385       .  A
C397        C398   1.406       .  A
C397        N403   1.349       .  A
C398        C399   1.406       .  A
C398        H409   1.082       .  S
C399        C408   1.378       .  A
C399        C400   1.385       .  A
C400        C401   1.403       .  A
C400        N406   1.346       .  A
C401        C402   1.405       .  A
C401        H410   1.082       .  S
C402        C405   1.377       .  A
N403        C404   1.357       .  A
N403        H413   1.045       .  S
C404        C405   1.396       .  A
C405        H411   1.082       .  S
N406        C407   1.355       .  A
N406        H414   1.045       .  S
C407        C408   1.396       .  A
C408        H412   1.082       .  S
C415        C420   1.385       .  A
C415       C1298   1.400   1_455  A
C415        N421   1.344   1_455  A
C416        C417   1.400   1_655  A
C416       C1297   1.400   1_654  A
C416        H427   1.082       .  S
C417        C426   1.372   1_455  A
C417        C418   1.385       .  A
C418        C419   1.403   1_554  A
C418        N424   1.345       .  A
C419       C1302   1.404       .  A
C419       H1310   1.082       .  S
C420        C423   1.376       .  A
C420       C1301   1.404       .  A
N421        C422   1.354   1_655  A
N421        H431   1.045       .  S
C422        C423   1.396       .  A
C423        H429   1.082       .  S
N424        C425   1.355       .  A
N424        H432   1.045       .  S
C425        C426   1.393   1_455  A
C426        H430   1.083       .  S
H428       C1301   1.082       .  S
C433        C438   1.385   1_455  A
C433        C434   1.401       .  A
C433        N439   1.346       .  A
C434        C435   1.403       .  A
C434        H445   1.082       .  S
C435        C444   1.374       .  A
C435        C436   1.385   1_455  A
C436        C437   1.406       .  A
C436        N442   1.349       .  A
C437        C438   1.407       .  A
C437        H446   1.082       .  S
C438        C441   1.377       .  A
N439        C440   1.354       .  A
N439        H449   1.045       .  S
C440        C441   1.397   1_455  A
C441        H447   1.082       .  S
N442        C443   1.357   1_655  A
N442        H450   1.044       .  S
C443        C444   1.395       .  A
C444        H448   1.082       .  S
C451        C456   1.385       .  A
C451        C452   1.404       .  A
C451        N457   1.347       .  A
C452        C453   1.404       .  A
C452        H463   1.082       .  S
C453        C462   1.377       .  A
C453        C454   1.385       .  A
C454        C455   1.405       .  A
C454        N460   1.347       .  A
C455        C456   1.405       .  A
C455        H464   1.082       .  S
C456        C459   1.379       .  A
N457        C458   1.355       .  A
N457        H467   1.045       .  S
C458        C459   1.396       .  A
C459        H465   1.082       .  S
N460        C461   1.355       .  A
N460        H468   1.045       .  S
C461        C462   1.395       .  A
C462        H466   1.083       .  S
C469        C474   1.385       .  A
C469        C470   1.402       .  A
C469        N475   1.343       .  A
C470        C471   1.402       .  A
C470        H481   1.082       .  S
C471        C480   1.376       .  A
C471        C472   1.385       .  A
C472        C473   1.404       .  A
C472        N478   1.345       .  A
C473        C474   1.404       .  A
C473        H482   1.082       .  S
C474        C477   1.378       .  A
N475        C476   1.353       .  A
N475        H485   1.045       .  S
C476        C477   1.396       .  A
C477        H483   1.082       .  S
N478        C479   1.355       .  A
N478        H486   1.045       .  S
C479        C480   1.395       .  A
C480        H484   1.082       .  S
C487        C492   1.385       .  A
C487        C488   1.398       .  A
C487        N493   1.344       .  A
C488        C489   1.400       .  A
C488        H499   1.082       .  S
C489        C498   1.368       .  A
C489        C490   1.385       .  A
C490        C491   1.405       .  A
C490        N496   1.350       .  A
C491        C492   1.407       .  A
C491        H500   1.082       .  S
C492        C495   1.376       .  A
N493        C494   1.353       .  A
N493        H503   1.045       .  S
C494        C495   1.398       .  A
C495        H501   1.082       .  S
N496        C497   1.357       .  A
N496        H504   1.044       .  S
C497       C1008   1.470       .  S
C497        C498   1.393       .  A
C498        H502   1.083       .  S
C505        C510   1.384       .  A
C505        C506   1.397       .  A
C505        N511   1.337       .  A
C506        C507   1.395   1_565  A
C506        H517   1.083       .  S
C507        C516   1.371       .  A
C507        C508   1.384       .  A
C508        C509   1.412       .  A
C508        N514   1.350       .  A
C509        C510   1.411   1_545  A
C509        H518   1.082       .  S
C510        C513   1.389       .  A
N511        C512   1.352       .  A
N511        H521   1.045       .  S
C512        C513   1.401       .  A
C513        H519   1.082       .  S
N514        C515   1.359       .  A
N514        H522   1.045       .  S
C515        C516   1.390       .  A
C516        H520   1.083       .  S
C523        C528   1.384       .  A
C523        C524   1.399       .  A
C523        N529   1.338       .  A
C524        C525   1.397       .  A
C524        H535   1.083       .  S
C525        C534   1.372       .  A
C525        C526   1.384       .  A
C526        C527   1.411       .  A
C526        N532   1.349       .  A
C527        C528   1.410       .  A
C527        H536   1.082       .  S
C528        C531   1.389       .  A
N529        C530   1.354       .  A
N529        H539   1.045       .  S
C530        C531   1.400       .  A
C531        H537   1.082       .  S
N532        C533   1.358       .  A
N532        H540   1.044       .  S
C533        C534   1.393       .  A
C534        H538   1.083       .  S
C541        C546   1.384       .  A
C541        C542   1.406       .  A
C541       N1429   1.348   1_554  A
C542        C543   1.406       .  A
C542       H1435   1.082   1_554  S
C543        C552   1.380       .  A
C543        C544   1.384       .  A
C544        C545   1.405       .  A
C544        N550   1.347       .  A
C545        C546   1.406       .  A
C545        H554   1.082       .  S
C546        C549   1.379       .  A
N547       C1423   1.348       .  A
N547       C1430   1.356       .  A
N547        H557   1.045       .  S
C548        C969   1.478   1_554  S
C548        C549   1.397       .  A
C548       N1429   1.356   1_554  A
C549        H555   1.082       .  S
N550        C551   1.356       .  A
N550        H558   1.045       .  S
C551        C552   1.397       .  A
C552        H556   1.082       .  S
H553       C1424   1.082       .  S
C559        C564   1.385       .  A
C559        C560   1.403       .  A
C559        N565   1.346       .  A
C560        C561   1.403       .  A
C560        H571   1.082       .  S
C561        C570   1.375       .  A
C561        C562   1.385       .  A
C562        C563   1.405       .  A
C562        N568   1.347       .  A
C563        C564   1.406       .  A
C563        H572   1.082       .  S
C564        C567   1.378       .  A
N565        C566   1.355       .  A
N565        H575   1.045       .  S
C566        C567   1.397       .  A
C567        H573   1.082       .  S
N568        C569   1.356       .  A
N568        H576   1.045       .  S
C569        C570   1.395       .  A
C570        H574   1.082       .  S
C577        C582   1.385       .  A
C577        C578   1.403       .  A
C577        N583   1.347       .  A
C578        C579   1.404       .  A
C578        H589   1.082       .  S
C579        C588   1.375       .  A
C579        C580   1.385       .  A
C580        C581   1.404       .  A
C580        N586   1.348       .  A
C581        C582   1.406       .  A
C581        H590   1.082       .  S
C582        C585   1.377       .  A
N583        C584   1.355       .  A
N583        H593   1.045       .  S
C584        C585   1.397       .  A
C585        H591   1.082       .  S
N586        C587   1.356       .  A
N586        H594   1.045       .  S
C587        C588   1.396       .  A
C588        H592   1.083       .  S
C595        C600   1.385       .  A
C595        C596   1.407       .  A
C595        N601   1.348       .  A
C596        C597   1.407   1_455  A
C596        H607   1.082       .  S
C597        C606   1.382       .  A
C597        C598   1.386   1_655  A
C598        C599   1.398       .  A
C598        N604   1.340   1_455  A
C599        C600   1.397       .  A
C599        H608   1.083       .  S
C600        C603   1.369       .  A
N601        C602   1.357       .  A
N601        H611   1.044       .  S
C602        C603   1.391       .  A
C603        H609   1.083       .  S
N604        C605   1.353       .  A
N604        H612   1.045       .  S
C605        C606   1.396       .  A
C606        H610   1.082       .  S
C613        C618   1.385       .  A
C613        C614   1.405       .  A
C613        N619   1.343       .  A
C614        C615   1.403       .  A
C614        H625   1.082       .  S
C615        C624   1.382       .  A
C615        C616   1.385       .  A
C616        C617   1.401       .  A
C616        N622   1.339       .  A
C617        C618   1.399       .  A
C617       H1508   1.083       .  S
C618       C1503   1.377       .  A
N619        C620   1.356       .  A
N619        H629   1.045       .  S
C620       C1001   1.467       .  S
C620       C1503   1.392       .  A
C621       C1500   1.376   1_554  A
C621       C1502   1.391   1_554  A
C621        H627   1.082       .  S
N622        C623   1.354       .  A
N622        H630   1.045       .  S
C623        C624   1.395       .  A
C624        H628   1.082       .  S
H626       C1499   1.083       .  S
C631        C636   1.385       .  A
C631        C632   1.405       .  A
C631        N637   1.342       .  A
C632        C633   1.402       .  A
C632        H643   1.082       .  S
C633        C642   1.381       .  A
C633        C634   1.385       .  A
C634        C635   1.404       .  A
C634        N640   1.342       .  A
C635        C636   1.402       .  A
C635        H644   1.082       .  S
C636        C639   1.380       .  A
N637        C638   1.356       .  A
N637        H647   1.045       .  S
C638        C639   1.394       .  A
C639        H645   1.082       .  S
N640        C641   1.355       .  A
N640        H648   1.045       .  S
C641        C642   1.394       .  A
C642        H646   1.082       .  S
C649        C654   1.386       .  A
C649        C650   1.399       .  A
C649        N655   1.343       .  A
C650       C1533   1.400       .  A
C650        H661   1.082       .  S
C651        C660   1.373       .  A
C651        C652   1.385       .  A
C651       C1532   1.401       .  A
C652        C653   1.401       .  A
C652        N658   1.344       .  A
C653       C1536   1.402   1_554  A
C653        H662   1.082   1_554  S
C654        C657   1.373       .  A
C654       C1535   1.402       .  A
N655        C656   1.353       .  A
N655        H665   1.045       .  S
C656        C657   1.395       .  A
C657        H663   1.083       .  S
N658        C659   1.354       .  A
N658        H666   1.045       .  S
C659        C660   1.394       .  A
C660        H664   1.083       .  S
C667        C672   1.385       .  A
C667        C668   1.402       .  A
C667        N673   1.339       .  A
C668        C669   1.400       .  A
C668        H679   1.082       .  S
C669        C678   1.379       .  A
C669        C670   1.384       .  A
C670        C671   1.405       .  A
C670        N676   1.341       .  A
C671        C672   1.402       .  A
C671        H680   1.082       .  S
C672        C675   1.381       .  A
N673        C674   1.354       .  A
N673        H683   1.045       .  S
C674        C675   1.394       .  A
C675        H681   1.082       .  S
N676        C677   1.356       .  A
N676        H684   1.045       .  S
C677        C678   1.394       .  A
C678        H682   1.082       .  S
C685        C690   1.385       .  A
C685        C686   1.397       .  A
C685        N691   1.337       .  A
C686        C687   1.395       .  A
C686        H697   1.083       .  S
C687        C696   1.370       .  A
C687        C688   1.384       .  A
C688        C689   1.412       .  A
C688        N694   1.351       .  A
C689        C690   1.412       .  A
C689        H698   1.082       .  S
C690        C693   1.389       .  A
N691        C692   1.352       .  A
N691        H701   1.045       .  S
C692        C693   1.400       .  A
C693        H699   1.082       .  S
N694        C695   1.360       .  A
N694        H702   1.044       .  S
C695        C696   1.391       .  A
C696        H700   1.083       .  S
C703        C708   1.385   1_545  A
C703        C704   1.405       .  A
C703        N709   1.347   1_545  A
C704        C705   1.405       .  A
C704        H715   1.082       .  S
C705        C714   1.378       .  A
C705        C706   1.385       .  A
C706        C707   1.404       .  A
C706        N712   1.347       .  A
C707        C708   1.404   1_545  A
C707        H716   1.082   1_545  S
C708        C711   1.376       .  A
N709        C710   1.356       .  A
N709        H719   1.045       .  S
C710        C711   1.395       .  A
C711        H717   1.083       .  S
N712        C713   1.355       .  A
N712        H720   1.045       .  S
C713        C714   1.396       .  A
C714        H718   1.082       .  S
C721        C726   1.384       .  A
C721        C722   1.405       .  A
C721        N727   1.341       .  A
C722        C723   1.402       .  A
C722        H733   1.082       .  S
C723        C732   1.383       .  A
C723        C724   1.384       .  A
C724        C725   1.404       .  A
C724        N730   1.340       .  A
C725        C726   1.401       .  A
C725        H734   1.082       .  S
C726        C729   1.382       .  A
N727        C728   1.357       .  A
N727        H737   1.045       .  S
C728        C729   1.394       .  A
C729        H735   1.082       .  S
N730        C731   1.355       .  A
N730        H738   1.045       .  S
C731        C732   1.395       .  A
C732        H736   1.082       .  S
C739        C744   1.385       .  A
C739        C740   1.403       .  A
C739        N745   1.345       .  A
C740        C741   1.403       .  A
C740        H751   1.082       .  S
C741        C750   1.376       .  A
C741        C742   1.385       .  A
C742        C743   1.402       .  A
C742        N748   1.344       .  A
C743        C744   1.402       .  A
C743        H752   1.082       .  S
C744        C747   1.374       .  A
N745        C746   1.355       .  A
N745        H755   1.045       .  S
C746        C747   1.395       .  A
C747        H753   1.083       .  S
N748        C749   1.354       .  A
N748        H756   1.045       .  S
C749        C750   1.396       .  A
C750        H754   1.083       .  S
C757        C762   1.385       .  A
C757        C758   1.403       .  A
C757       N1645   1.346       .  A
C758        C759   1.404       .  A
C758       H1651   1.082       .  S
C759        C768   1.377       .  A
C759        C760   1.385       .  A
C760        C761   1.404       .  A
C760        N766   1.346       .  A
C761        C762   1.404       .  A
C761        H770   1.082       .  S
C762        C765   1.377       .  A
N763       C1639   1.346       .  A
N763       C1646   1.355       .  A
N763        H773   1.045       .  S
C764        C910   1.471   1_554  S
C764        C765   1.396       .  A
C764       N1645   1.355       .  A
C765        H771   1.083       .  S
N766        C767   1.355       .  A
N766        H774   1.045       .  S
C767        C768   1.395       .  A
C768        H772   1.082       .  S
H769       C1640   1.082       .  S
C775        C780   1.384       .  A
C775        C776   1.408       .  A
C775        N781   1.345       .  A
C776        C777   1.406       .  A
C776       H1669   1.082       .  S
C777        C778   1.384       .  A
C777       C1668   1.385       .  A
C778        C779   1.408       .  A
C778        N784   1.346       .  A
C779        C780   1.406       .  A
C779        H788   1.082       .  S
C780        C783   1.385       .  A
N781        C782   1.358       .  A
N781        H791   1.045       .  S
C782        C783   1.397       .  A
C783        H789   1.082       .  S
N784       C1667   1.357       .  A
N784        H792   1.045       .  S
C785        C786   1.397       .  A
C785       N1666   1.357       .  A
C786       C1659   1.385       .  A
C786        H790   1.082   1_556  S
H787       C1658   1.082       .  S
C793        C798   1.384       .  A
C793        C794   1.399       .  A
C793        N799   1.340       .  A
C794        C795   1.398       .  A
C794        H805   1.083       .  S
C795        C804   1.371   1_455  A
C795        C796   1.384   1_455  A
C796        C797   1.409   1_655  A
C796        N802   1.349       .  A
C797        C798   1.409       .  A
C797        H806   1.082       .  S
C798        C801   1.387       .  A
N799        C800   1.354       .  A
N799        H809   1.045       .  S
C800        C801   1.399       .  A
C801        H807   1.082       .  S
N802        C803   1.357       .  A
N802        H810   1.044       .  S
C803        C804   1.392       .  A
C804        H808   1.083       .  S
C811        C816   1.384       .  A
C811        C812   1.403       .  A
C811        N817   1.341       .  A
C812        C813   1.401       .  A
C812        H823   1.082       .  S
C813        C822   1.379       .  A
C813        C814   1.384       .  A
C814        C815   1.407       .  A
C814        N820   1.344       .  A
C815        C816   1.405       .  A
C815        H824   1.082       .  S
C816        C819   1.383       .  A
N817        C818   1.355       .  A
N817        H827   1.045       .  S
C818        C819   1.396       .  A
C819        H825   1.082       .  S
N820        C821   1.357       .  A
N820        H828   1.045       .  S
C821        C822   1.393       .  A
C822        H826   1.082       .  S
C829        C834   1.384       .  A
C829        C830   1.400       .  A
C829        N835   1.340       .  A
C830        C831   1.399       .  A
C830        H841   1.083       .  S
C831        C840   1.373       .  A
C831        C832   1.384       .  A
C832        C833   1.410       .  A
C832        N838   1.349       .  A
C833        C834   1.409       .  A
C833        H842   1.082       .  S
C834        C837   1.387       .  A
N835        C836   1.354       .  A
N835        H845   1.045       .  S
C836        C837   1.398       .  A
C837        H843   1.082       .  S
N838        C839   1.358       .  A
N838        H846   1.044       .  S
C839        C840   1.393       .  A
C840        H844   1.083       .  S
C847        C852   1.384       .  A
C847        C848   1.405       .  A
C847        N853   1.342       .  A
C848        C849   1.403       .  A
C848        H859   1.082       .  S
C849        C858   1.383       .  A
C849        C850   1.384       .  A
C850        C851   1.406       .  A
C850        N856   1.343       .  A
C851        C852   1.403       .  A
C851        H860   1.082       .  S
C852        C855   1.384       .  A
N853        C854   1.357       .  A
N853        H863   1.045       .  S
C854        C855   1.395       .  A
C855        H861   1.082       .  S
N856        C857   1.357       .  A
N856        H864   1.045       .  S
C857        C858   1.395       .  A
C858        H862   1.082       .  S
C865        C870   1.385       .  A
C865        C866   1.403       .  A
C865        N871   1.341       .  A
C866        C867   1.402       .  A
C866        H877   1.082       .  S
C867        C876   1.378       .  A
C867        C868   1.385       .  A
C868        C869   1.403       .  A
C868        N874   1.342       .  A
C869        C870   1.401       .  A
C869        H878   1.082       .  S
C870        C873   1.378       .  A
N871        C872   1.356       .  A
N871       H1763   1.045       .  S
C872        C899   1.466       .  S
C872        C873   1.392       .  A
C873        H879   1.082       .  S
N874        C875   1.355       .  A
N874        H882   1.045       .  S
C875        C876   1.394       .  A
C876        H880   1.082       .  S
H881       N1753   1.045       .  S
O883        C886   1.271       .  A
O883       Cd888   2.461       .  S
C884        O893   1.267       .  A
C884        O889   1.273       .  A
C884       C1700   1.470       .  S
O885        C891   1.273       .  A
O885       Cd888   2.519       .  S
C886        O894   1.266       .  A
C886       C1757   1.468       .  S
C887        O892   1.275       .  A
C887        O890   1.265       .  A
C887       C1736   1.473       .  S
Cd888       O895   2.402       .  S
Cd888       O894   2.438       .  S
Cd888       O893   2.418       .  S
Cd888       O889   2.474       .  S
Cd888       O892   2.497       .  S
Cd888       O890   2.403       .  S
C891        O895   1.263       .  A
C891       C1718   1.472       .  S
O896        C899   1.275       .  A
O896       Cd901   2.468       .  S
C897        O906   1.263       .  A
C897        O902   1.272       .  A
C897       C1682   1.474       .  S
O898        C904   1.272       .  A
O898       Cd901   2.492       .  S
C899        O907   1.266       .  A
C900        O905   1.272       .  A
C900        O903   1.267       .  A
C900       C1667   1.480       .  S
Cd901       O908   2.429       .  S
Cd901       O907   2.401       .  S
Cd901       O906   2.413       .  S
Cd901       O902   2.532       .  S
Cd901       O905   2.496       .  S
Cd901       O903   2.461       .  S
C904        O908   1.264       .  A
C904       C1739   1.473       .  S
O909        C912   1.273       .  A
O909       Cd914   2.484       .  S
C910        O919   1.268   1_556  A
C910        O915   1.274       .  A
O911        C917   1.274       .  A
O911       Cd914   2.500       .  S
C912        O920   1.266       .  A
C912       C1628   1.471       .  S
C913       C1610   1.472       .  S
Cd914       O921   2.411       .  S
Cd914       O920   2.415       .  S
Cd914       O919   2.416   1_556  S
Cd914       O915   2.476       .  S
Cd914       O918   2.499   1_556  S
Cd914       O916   2.397       .  S
C917        O921   1.267       .  A
C917       C1721   1.474       .  S
O922        C925   1.272       .  A
O922       Cd927   2.507       .  S
C923        O932   1.264       .  A
C923        O928   1.270       .  A
C923       C1631   1.470       .  S
O924        C930   1.270       .  A
O924       Cd927   2.526       .  S
C925        O933   1.265       .  A
C925       C1595   1.474       .  S
C926        O931   1.272       .  A
C926        O929   1.265       .  A
C926       C1613   1.470       .  S
Cd927       O934   2.403       .  S
Cd927       O933   2.431       .  S
Cd927       O932   2.428       .  S
Cd927       O928   2.486       .  S
Cd927       O931   2.493       .  S
Cd927       O929   2.413       .  S
C930        O934   1.263       .  A
C930       C1574   1.471       .  S
O935        C938   1.267       .  A
O935       Cd940   2.500       .  S
C936        O945   1.264       .  A
C936        O941   1.271       .  A
C936       C1538   1.464       .  S
O937        C943   1.268       .  A
O937       Cd940   2.505       .  S
C938        O946   1.260       .  A
C938       C1520   1.467       .  S
C939        O944   1.272       .  A
C939        O942   1.264       .  A
C939       C1556   1.464       .  S
Cd940       O947   2.413       .  S
Cd940       O946   2.433       .  S
Cd940       O945   2.406       .  S
Cd940       O941   2.475       .  S
Cd940       O944   2.476       .  S
Cd940       O942   2.395       .  S
C943        O947   1.261       .  A
C943       C1505   1.465       .  S
O948        C951   1.272       .  A
O948       Cd953   2.477       .  S
C949        O958   1.260       .  A
C949        O954   1.269       .  A
C949       C1703   1.468       .  S
O950        C956   1.269       .  A
O950       Cd953   2.510       .  S
C951        O959   1.265       .  A
C951       C1541   1.464       .  S
C952        O957   1.273       .  A
C952        O955   1.265       .  A
C952       C1559   1.468       .  S
Cd953       O960   2.432       .  S
Cd953       O959   2.398       .  S
Cd953       O958   2.438       .  S
Cd953       O954   2.495       .  S
Cd953       O957   2.481       .  S
Cd953       O955   2.414       .  S
C956        O960   1.260       .  A
C956       C1649   1.469       .  S
O961       Cd966   2.493   1_554  S
C962        O971   1.263       .  A
C962        O967   1.269       .  A
C962       C1487   1.466       .  S
O963        C969   1.273       .  A
O963       Cd966   2.502       .  S
C964       C1448   1.474       .  S
C965        O970   1.271       .  A
C965        O968   1.262       .  A
C965       C1466   1.474       .  S
Cd966       O973   2.438   1_556  S
Cd966       O972   2.434       .  S
Cd966       O971   2.431       .  S
Cd966       O967   2.497       .  S
Cd966       O970   2.518       .  S
Cd966       O968   2.433       .  S
C969        O973   1.266   1_556  A
O974        C977   1.272       .  A
O974       Cd979   2.486       .  S
C975        O984   1.268       .  A
C975        O980   1.273       .  A
C975       C1523   1.468       .  S
O976        C982   1.275       .  A
O976       Cd979   2.498       .  S
C977        O985   1.265       .  A
C977       C1451   1.471       .  S
C978        O983   1.273       .  A
C978        O981   1.265       .  A
C978       C1415   1.471       .  S
Cd979       O986   2.399       .  S
Cd979       O985   2.419       .  S
Cd979       O984   2.418       .  S
Cd979       O980   2.468       .  S
Cd979       O983   2.503       .  S
Cd979       O981   2.410       .  S
C982        O986   1.266       .  A
C982       C1469   1.473       .  S
O987        C990   1.274       .  A
O987       Cd992   2.441       .  S
C988        O997   1.266       .  A
C988        O993   1.274       .  A
C988       C1394   1.473       .  S
O989        C995   1.274       .  A
O989       Cd992   2.494       .  S
C990        O998   1.269       .  A
C990       C1358   1.468       .  S
C991        O996   1.276       .  A
C991        O994   1.265       .  A
C991       C1376   1.469       .  S
Cd992       O999   2.437       .  S
Cd992       O998   2.429       .  S
Cd992       O997   2.393       .  S
Cd992       O993   2.507       .  S
Cd992       O996   2.487       .  S
Cd992       O994   2.398       .  S
C995        O999   1.268       .  A
C995       C1340   1.475       .  S
O1000      C1003   1.270       .  A
O1000     Cd1005   2.477       .  S
C1001      O1010   1.267       .  A
C1001      O1006   1.271       .  A
O1002      C1008   1.276       .  A
O1002     Cd1005   2.513       .  S
C1003      O1011   1.266       .  A
C1003      C1361   1.469       .  S
C1004      O1009   1.273       .  A
C1004      O1007   1.263       .  A
C1004      C1412   1.474       .  S
Cd1005     O1012   2.366       .  S
Cd1005     O1011   2.425       .  S
Cd1005     O1010   2.440       .  S
Cd1005     O1006   2.464       .  S
Cd1005     O1009   2.529       .  S
Cd1005     O1007   2.398       .  S
C1008      O1012   1.264       .  A
O1013      C1016   1.272       .  A
O1013     Cd1018   2.483       .  S
C1014      O1023   1.261   1_655  A
C1014      O1019   1.270       .  A
C1014      C1286   1.474       .  S
O1015      C1021   1.273       .  A
O1015     Cd1018   2.493       .  S
C1016      O1024   1.265       .  A
C1016      C1304   1.469       .  S
C1017      O1022   1.269       .  A
C1017      O1020   1.261       .  A
C1017      C1664   1.478       .  S
Cd1018     O1025   2.416       .  S
Cd1018     O1024   2.425       .  S
Cd1018     O1023   2.428       .  S
Cd1018     O1019   2.528   1_455  S
Cd1018     O1022   2.526       .  S
Cd1018     O1020   2.448       .  S
C1021      O1025   1.265       .  A
C1021      C1322   1.471       .  S
O1026      C1029   1.272       .  A
O1026     Cd1031   2.480       .  S
C1027      O1036   1.263       .  A
C1027      O1032   1.271       .  A
C1027      C1268   1.471       .  S
O1028      C1034   1.271       .  A
O1028     Cd1031   2.497   1_655  S
C1029      O1037   1.266   1_455  A
C1029      C1307   1.466       .  S
C1030      O1035   1.271   1_455  A
C1030      O1033   1.263       .  A
C1030      C1325   1.478       .  S
Cd1031     O1038   2.453   1_455  S
Cd1031     O1037   2.406   1_455  S
Cd1031     O1036   2.399       .  S
Cd1031     O1032   2.522       .  S
Cd1031     O1035   2.524   1_455  S
Cd1031     O1033   2.434       .  S
C1034      O1038   1.265       .  A
C1034      C1433   1.475       .  S
O1039      C1042   1.274       .  A
O1039     Cd1044   2.472       .  S
C1040      O1049   1.264       .  A
C1040      O1045   1.273       .  A
C1040      C1235   1.470       .  S
O1041      C1047   1.272       .  A
O1041     Cd1044   2.500       .  S
C1042      O1050   1.267       .  A
C1042      C1289   1.472       .  S
C1043      O1048   1.274       .  A
C1043      O1046   1.267       .  A
C1043      C1253   1.465       .  S
Cd1044     O1051   2.393       .  S
Cd1044     O1050   2.422       .  S
Cd1044     O1049   2.400       .  S
Cd1044     O1045   2.496       .  S
Cd1044     O1048   2.463       .  S
Cd1044     O1046   2.390       .  S
C1047      O1051   1.264       .  A
C1047      C1685   1.467       .  S
O1052      C1055   1.271       .  A
O1052     Cd1057   2.492       .  S
C1053      O1062   1.266   1_556  A
C1053      O1058   1.273       .  A
O1054      C1060   1.269       .  A
O1054     Cd1057   2.513       .  S
C1055      O1063   1.263       .  A
C1055      C1250   1.468       .  S
C1056      C1232   1.469       .  S
Cd1057     O1064   2.423       .  S
Cd1057     O1063   2.412       .  S
Cd1057     O1062   2.415   1_556  S
Cd1057     O1058   2.479       .  S
Cd1057     O1061   2.468   1_556  S
Cd1057     O1059   2.413       .  S
C1060      O1064   1.264       .  A
C1060      C1397   1.469       .  S
O1065      C1068   1.275       .  A
O1065     Cd1070   2.486   1_565  S
C1066      O1075   1.266       .  A
C1066      O1071   1.274   1_545  A
C1066      C1199   1.469       .  S
O1067      C1073   1.274       .  A
O1067     Cd1070   2.500       .  S
C1068      O1076   1.268   1_565  A
C1068      C1163   1.468       .  S
C1069      O1074   1.276       .  A
C1069      O1072   1.266   1_545  A
C1069      C1178   1.472       .  S
Cd1070     O1077   2.408       .  S
Cd1070     O1076   2.386       .  S
Cd1070     O1075   2.403       .  S
Cd1070     O1071   2.473   1_545  S
Cd1070     O1074   2.492       .  S
Cd1070     O1072   2.393   1_545  S
C1073      O1077   1.268       .  A
C1073      C1577   1.474       .  S
O1078      C1081   1.272       .  A
O1078     Cd1083   2.458       .  S
C1079      O1088   1.263       .  A
C1079      O1084   1.270       .  A
C1079      C1217   1.471       .  S
O1080      C1086   1.270       .  A
O1080     Cd1083   2.499   1_565  S
C1081      O1089   1.265   1_545  A
C1081      C1196   1.465       .  S
C1082      O1087   1.272   1_545  A
C1082      O1085   1.264       .  A
C1082      C1181   1.467       .  S
Cd1083     O1090   2.430   1_545  S
Cd1083     O1089   2.419   1_545  S
Cd1083     O1088   2.424       .  S
Cd1083     O1084   2.514       .  S
Cd1083     O1087   2.482   1_545  S
Cd1083     O1085   2.405       .  S
C1086      O1090   1.263       .  A
C1086      C1343   1.471       .  S
O1091      C1094   1.274       .  A
O1091     Cd1096   2.480       .  S
C1092      O1101   1.267       .  A
C1092      O1097   1.273       .  A
C1092      C1271   1.471       .  S
O1093      C1099   1.275       .  A
O1093     Cd1096   2.485       .  S
C1094      O1102   1.266       .  A
C1094      C1142   1.465       .  S
C1095      O1100   1.274       .  A
C1095      O1098   1.265       .  A
C1095      C1124   1.468       .  S
Cd1096     O1103   2.382       .  S
Cd1096     O1102   2.379       .  S
Cd1096     O1101   2.396       .  S
Cd1096     O1097   2.493       .  S
Cd1096     O1100   2.485       .  S
Cd1096     O1098   2.393       .  S
C1099      O1103   1.267       .  A
C1099      C1484   1.468       .  S
O1104      C1107   1.272       .  A
O1104     Cd1109   2.489       .  S
C1105      O1114   1.262       .  A
C1105      O1110   1.269       .  A
C1105      C1160   1.467       .  S
O1106      C1112   1.271       .  A
O1106     Cd1109   2.504       .  S
C1107      O1115   1.265       .  A
C1107      C1127   1.472       .  S
C1108      O1113   1.273       .  A
C1108      O1111   1.266       .  A
C1108      C1592   1.470       .  S
Cd1109     O1116   2.408       .  S
Cd1109     O1115   2.428       .  S
Cd1109     O1114   2.430       .  S
Cd1109     O1110   2.499       .  S
Cd1109     O1113   2.486       .  S
Cd1109     O1111   2.410       .  S
C1112      O1116   1.262       .  A
C1117      C1122   1.385       .  A
C1117      C1118   1.403       .  A
C1117      N1123   1.340       .  A
C1118      C1119   1.400       .  A
C1118      H1129   1.082       .  S
C1119      C1128   1.380       .  A
C1119      C1120   1.384       .  A
C1120      C1121   1.406       .  A
C1120      N1126   1.343       .  A
C1121      C1122   1.403       .  A
C1121      H1130   1.082       .  S
C1122      C1125   1.383       .  A
N1123      C1124   1.355       .  A
N1123      H1133   1.045       .  S
C1124      C1125   1.395       .  A
C1125      H1131   1.082       .  S
N1126      C1127   1.357       .  A
N1126      H1134   1.045       .  S
C1127      C1128   1.394       .  A
C1128      H1132   1.082       .  S
C1135      C1140   1.385       .  A
C1135      C1136   1.403       .  A
C1135      N1141   1.347       .  A
C1136      C1137   1.405       .  A
C1136      H1147   1.082       .  S
C1137      C1146   1.374       .  A
C1137      C1138   1.386       .  A
C1138      C1139   1.399       .  A
C1138      N1144   1.344       .  A
C1139      C1140   1.400       .  A
C1139      H1148   1.082       .  S
C1140      C1143   1.369       .  A
N1141      C1142   1.355       .  A
N1141      H1151   1.045       .  S
C1142      C1143   1.392       .  A
C1143      H1149   1.083       .  S
N1144      C1145   1.353       .  A
N1144      H1152   1.045       .  S
C1145      C1146   1.396       .  A
C1146      H1150   1.082       .  S
C1153      C1158   1.385       .  A
C1153      C1154   1.398       .  A
C1153      N1159   1.340   1_556  A
C1154      C1155   1.397       .  A
C1154      H1165   1.083       .  S
C1155      C1164   1.370       .  A
C1155      C1156   1.385       .  A
C1156      C1157   1.406       .  A
C1156      N1162   1.348       .  A
C1157      C1158   1.407       .  A
C1157      H1166   1.082       .  S
C1158      C1161   1.382       .  A
N1159      H1169   1.045       .  S
C1161      H1167   1.082       .  S
N1162      C1163   1.357       .  A
N1162      H1170   1.044       .  S
C1163      C1164   1.392       .  A
C1164      H1168   1.083   1_565  S
C1171      C1176   1.385       .  A
C1171      N1177   1.347       .  A
C1172      C1173   1.403       .  A
C1172      H1183   1.082       .  S
C1173      C1182   1.374       .  A
C1173      C1174   1.385       .  A
C1174      N1180   1.345   1_545  A
C1175      C1176   1.403   1_565  A
C1175      H1184   1.082       .  S
C1176      C1179   1.374   1_545  A
N1177      C1178   1.355       .  A
N1177      H1187   1.045       .  S
C1178      C1179   1.396   1_545  A
C1179      H1185   1.083       .  S
N1180      C1181   1.354   1_565  A
N1180      H1188   1.045       .  S
C1181      C1182   1.394       .  A
C1182      H1186   1.083       .  S
C1189      C1194   1.385       .  A
C1189      C1190   1.404   1_545  A
C1189      N1195   1.342   1_545  A
C1190      C1191   1.402       .  A
C1190      H1201   1.082       .  S
C1191      C1200   1.380       .  A
C1191      C1192   1.385   1_565  A
C1192      C1193   1.402       .  A
C1192      N1198   1.341       .  A
C1193      C1194   1.400       .  A
C1193      H1202   1.082       .  S
C1194      C1197   1.377       .  A
N1195      C1196   1.356   1_565  A
N1195      H1205   1.045       .  S
C1196      C1197   1.392       .  A
C1197      H1203   1.082       .  S
N1198      C1199   1.356       .  A
N1198      H1206   1.045       .  S
C1199      C1200   1.394   1_545  A
C1200      H1204   1.082       .  S
C1207      C1212   1.385       .  A
C1207      C1208   1.401       .  A
C1208      C1209   1.402       .  A
C1209      C1218   1.374       .  A
C1209      C1210   1.385       .  A
C1210      C1211   1.405       .  A
C1210      N1216   1.348       .  A
C1211      C1212   1.406       .  A
C1211      H1220   1.082       .  S
C1212      C1215   1.378       .  A
N1213      H1223   1.045   1_554  S
C1214      C1215   1.396       .  A
C1215      H1221   1.083       .  S
N1216      C1217   1.356       .  A
N1216      H1224   1.045       .  S
C1217      C1218   1.393       .  A
C1218      H1222   1.083       .  S
C1225      C1230   1.385       .  A
C1225      C1226   1.401       .  A
C1225      N1231   1.344       .  A
C1226      C1227   1.402       .  A
C1226      H1237   1.082       .  S
C1227      C1236   1.373       .  A
C1227      C1228   1.385       .  A
C1228      C1229   1.404       .  A
C1228      N1234   1.347       .  A
C1229      C1230   1.405       .  A
C1229      H1238   1.082       .  S
C1230      C1233   1.376       .  A
N1231      C1232   1.354       .  A
N1231      H1241   1.045       .  S
C1232      C1233   1.396       .  A
C1233      H1239   1.082       .  S
N1234      C1235   1.356       .  A
N1234      H1242   1.045       .  S
C1235      C1236   1.394       .  A
C1236      H1240   1.083       .  S
C1243      C1248   1.384       .  A
C1243      C1244   1.404       .  A
C1243      N1249   1.340       .  A
C1244      C1245   1.401       .  A
C1244      H1255   1.082       .  S
C1245      C1254   1.380       .  A
C1245      C1246   1.385       .  A
C1246      C1247   1.403       .  A
C1246      N1252   1.340       .  A
C1247      C1248   1.400       .  A
C1247      H1256   1.082       .  S
C1248      C1251   1.380       .  A
N1249      C1250   1.356       .  A
N1249      H1259   1.045       .  S
C1250      C1251   1.394       .  A
C1251      H1257   1.082       .  S
N1252      C1253   1.355       .  A
N1252      H1260   1.045       .  S
C1253      C1254   1.393       .  A
C1254      H1258   1.082       .  S
C1261      C1266   1.384       .  A
C1261      C1262   1.398       .  A
C1261      N1267   1.338       .  A
C1262      C1263   1.396       .  A
C1262      H1273   1.083       .  S
C1263      C1272   1.371       .  A
C1263      C1264   1.384       .  A
C1264      C1265   1.411       .  A
C1264      N1270   1.350       .  A
C1265      C1266   1.411       .  A
C1265      H1274   1.082       .  S
C1266      C1269   1.388       .  A
N1267      C1268   1.353       .  A
N1267      H1277   1.045       .  S
C1268      C1269   1.400       .  A
C1269      H1275   1.082       .  S
N1270      C1271   1.359       .  A
N1270      H1278   1.044       .  S
C1271      C1272   1.391       .  A
C1272      H1276   1.083       .  S
C1279      C1284   1.385       .  A
C1279      C1280   1.406       .  A
C1279      N1285   1.349       .  A
C1280      C1281   1.406       .  A
C1280      H1291   1.082       .  S
C1281      C1290   1.378       .  A
C1281      C1282   1.385       .  A
C1282      C1283   1.403       .  A
C1282      N1288   1.346       .  A
C1283      C1284   1.404       .  A
C1283      H1292   1.082       .  S
C1284      C1287   1.376       .  A
N1285      C1286   1.357       .  A
N1285      H1295   1.045       .  S
C1286      C1287   1.395       .  A
C1287      H1293   1.082       .  S
N1288      C1289   1.355       .  A
N1288      H1296   1.045       .  S
C1289      C1290   1.396       .  A
C1290      H1294   1.082       .  S
C1297      C1302   1.385       .  A
C1297      N1303   1.344   1_455  A
C1298      C1299   1.400   1_655  A
C1298      H1309   1.082       .  S
C1299      C1308   1.372   1_455  A
C1299      C1300   1.385       .  A
C1300      C1301   1.403       .  A
C1300      N1306   1.345       .  A
C1302      C1305   1.376       .  A
N1303      C1304   1.354   1_655  A
N1303      H1313   1.045       .  S
C1304      C1305   1.396       .  A
C1305      H1311   1.082       .  S
N1306      C1307   1.355       .  A
N1306      H1314   1.045       .  S
C1307      C1308   1.393   1_455  A
C1308      H1312   1.083       .  S
C1315      C1320   1.385   1_455  A
C1315      C1316   1.401       .  A
C1315      N1321   1.346       .  A
C1316      C1317   1.403       .  A
C1316      H1327   1.082       .  S
C1317      C1326   1.374       .  A
C1317      C1318   1.385   1_455  A
C1318      C1319   1.406       .  A
C1318      N1324   1.349       .  A
C1319      C1320   1.406       .  A
C1319      H1328   1.082       .  S
C1320      C1323   1.377       .  A
N1321      C1322   1.354       .  A
N1321      H1331   1.045       .  S
C1322      C1323   1.397   1_455  A
C1323      H1329   1.082       .  S
N1324      C1325   1.357   1_655  A
N1324      H1332   1.044       .  S
C1325      C1326   1.395       .  A
C1326      H1330   1.082       .  S
C1333      C1338   1.385       .  A
C1333      C1334   1.404       .  A
C1333      N1339   1.347       .  A
C1334      C1335   1.404       .  A
C1334      H1345   1.082       .  S
C1335      C1344   1.377       .  A
C1335      C1336   1.385       .  A
C1336      C1337   1.405       .  A
C1336      N1342   1.347       .  A
C1337      C1338   1.405       .  A
C1337      H1346   1.082       .  S
C1338      C1341   1.379       .  A
N1339      C1340   1.356       .  A
N1339      H1349   1.045       .  S
C1340      C1341   1.396       .  A
C1341      H1347   1.082       .  S
N1342      C1343   1.355       .  A
N1342      H1350   1.045       .  S
C1343      C1344   1.395       .  A
C1344      H1348   1.083       .  S
C1351      C1356   1.385       .  A
C1351      C1352   1.401       .  A
C1351      N1357   1.342       .  A
C1352      C1353   1.401       .  A
C1352      H1363   1.082       .  S
C1353      C1362   1.375       .  A
C1353      C1354   1.385       .  A
C1354      C1355   1.404       .  A
C1354      N1360   1.345       .  A
C1355      C1356   1.404       .  A
C1355      H1364   1.082       .  S
C1356      C1359   1.379       .  A
N1357      C1358   1.353       .  A
N1357      H1367   1.045       .  S
C1358      C1359   1.396       .  A
C1359      H1365   1.082       .  S
N1360      C1361   1.355       .  A
N1360      H1368   1.045       .  S
C1361      C1362   1.394       .  A
C1362      H1366   1.083       .  S
C1369      C1374   1.386       .  A
C1369      C1370   1.398       .  A
C1369      N1375   1.344       .  A
C1370      C1371   1.399       .  A
C1370      H1381   1.082       .  S
C1371      C1380   1.367       .  A
C1371      C1372   1.385       .  A
C1372      C1373   1.405       .  A
C1372      N1378   1.350       .  A
C1373      C1374   1.408       .  A
C1373      H1382   1.082       .  S
C1374      C1377   1.377       .  A
N1375      C1376   1.352       .  A
N1375      H1385   1.045       .  S
C1376      C1377   1.398       .  A
C1377      H1383   1.082       .  S
N1378      C1379   1.357       .  A
N1378      H1386   1.044       .  S
C1379      C1380   1.392       .  A
C1380      H1384   1.083       .  S
C1387      C1392   1.384       .  A
C1387      C1388   1.397       .  A
C1387      N1393   1.337       .  A
C1388      C1389   1.395   1_565  A
C1388      H1399   1.083       .  S
C1389      C1398   1.371       .  A
C1389      C1390   1.384       .  A
C1390      C1391   1.412       .  A
C1390      N1396   1.349       .  A
C1391      C1392   1.411   1_545  A
C1391      H1400   1.082       .  S
C1392      C1395   1.390       .  A
N1393      C1394   1.352       .  A
N1393      H1403   1.045       .  S
C1394      C1395   1.401       .  A
C1395      H1401   1.082       .  S
N1396      C1397   1.359       .  A
N1396      H1404   1.045       .  S
C1397      C1398   1.390       .  A
C1398      H1402   1.083       .  S
C1405      C1410   1.384       .  A
C1405      C1406   1.398       .  A
C1405      N1411   1.337       .  A
C1406      C1407   1.396       .  A
C1406      H1417   1.083       .  S
C1407      C1416   1.372       .  A
C1407      C1408   1.384       .  A
C1408      C1409   1.411       .  A
C1408      N1414   1.349       .  A
C1409      C1410   1.410       .  A
C1409      H1418   1.082       .  S
C1410      C1413   1.390       .  A
N1411      C1412   1.353       .  A
N1411      H1421   1.045       .  S
C1412      C1413   1.400       .  A
C1413      H1419   1.082       .  S
N1414      C1415   1.358       .  A
N1414      H1422   1.044       .  S
C1415      C1416   1.392       .  A
C1416      H1420   1.083       .  S
C1423      C1428   1.384       .  A
C1423      C1424   1.406       .  A
C1424      C1425   1.406       .  A
C1425      C1434   1.380       .  A
C1425      C1426   1.385       .  A
C1426      C1427   1.405       .  A
C1426      N1432   1.347       .  A
C1427      C1428   1.405       .  A
C1427      H1436   1.082       .  S
C1428      C1431   1.379       .  A
N1429      H1439   1.045       .  S
C1430      C1431   1.397       .  A
C1431      H1437   1.082       .  S
N1432      C1433   1.356       .  A
N1432      H1440   1.045       .  S
C1433      C1434   1.397       .  A
C1434      H1438   1.082       .  S
C1441      C1446   1.385       .  A
C1441      C1442   1.403       .  A
C1441      N1447   1.346       .  A
C1442      C1443   1.403       .  A
C1442      H1453   1.082       .  S
C1443      C1452   1.375       .  A
C1443      C1444   1.385       .  A
C1444      C1445   1.404       .  A
C1444      N1450   1.347       .  A
C1445      C1446   1.405       .  A
C1445      H1454   1.082       .  S
C1446      C1449   1.378       .  A
N1447      C1448   1.355       .  A
N1447      H1457   1.045       .  S
C1448      C1449   1.397       .  A
C1449      H1455   1.082       .  S
N1450      C1451   1.356       .  A
N1450      H1458   1.045       .  S
C1451      C1452   1.395       .  A
C1452      H1456   1.083       .  S
C1459      C1464   1.385       .  A
C1459      C1460   1.403       .  A
C1459      N1465   1.347       .  A
C1460      C1461   1.404       .  A
C1460      H1471   1.082       .  S
C1461      C1470   1.374       .  A
C1461      C1462   1.385       .  A
C1462      C1463   1.404       .  A
C1462      N1468   1.348       .  A
C1463      C1464   1.405       .  A
C1463      H1472   1.082       .  S
C1464      C1467   1.376       .  A
N1465      C1466   1.355       .  A
N1465      H1475   1.045       .  S
C1466      C1467   1.397       .  A
C1467      H1473   1.082       .  S
N1468      C1469   1.356       .  A
N1468      H1476   1.045       .  S
C1469      C1470   1.395       .  A
C1470      H1474   1.083       .  S
C1477      C1482   1.385       .  A
C1477      C1478   1.406       .  A
C1477      N1483   1.348       .  A
C1478      C1479   1.407   1_455  A
C1478      H1489   1.082       .  S
C1479      C1488   1.382       .  A
C1479      C1480   1.385   1_655  A
C1480      C1481   1.399       .  A
C1480      N1486   1.340   1_455  A
C1481      C1482   1.397       .  A
C1481      H1490   1.083       .  S
C1482      C1485   1.370       .  A
N1483      C1484   1.356       .  A
N1483      H1493   1.044       .  S
C1484      C1485   1.392       .  A
C1485      H1491   1.083       .  S
N1486      C1487   1.353       .  A
N1486      H1494   1.045       .  S
C1487      C1488   1.396       .  A
C1488      H1492   1.082       .  S
C1495      C1500   1.385       .  A
C1495      C1496   1.406       .  A
C1495      N1501   1.343       .  A
C1496      C1497   1.404       .  A
C1496      H1507   1.082       .  S
C1497      C1506   1.383       .  A
C1497      C1498   1.385       .  A
C1498      C1499   1.400       .  A
C1498      N1504   1.339       .  A
C1499      C1500   1.398       .  A
N1501      C1502   1.356       .  A
N1501      H1511   1.045       .  S
C1503      H1509   1.082       .  S
N1504      C1505   1.353       .  A
N1504      H1512   1.045       .  S
C1505      C1506   1.395       .  A
C1506      H1510   1.082       .  S
C1513      C1518   1.385       .  A
C1513      C1514   1.404       .  A
C1513      N1519   1.342       .  A
C1514      C1515   1.402       .  A
C1514      H1525   1.082       .  S
C1515      C1524   1.381       .  A
C1515      C1516   1.385       .  A
C1516      C1517   1.403       .  A
C1516      N1522   1.341       .  A
C1517      C1518   1.402       .  A
C1517      H1526   1.082       .  S
C1518      C1521   1.380       .  A
N1519      C1520   1.355       .  A
N1519      H1529   1.045       .  S
C1520      C1521   1.393       .  A
C1521      H1527   1.082       .  S
N1522      C1523   1.355       .  A
N1522      H1530   1.045       .  S
C1523      C1524   1.394       .  A
C1524      H1528   1.082       .  S
C1531      C1536   1.385       .  A
C1531      C1532   1.400   1_556  A
C1531      N1537   1.343       .  A
C1532      H1543   1.082       .  S
C1533      C1542   1.371       .  A
C1533      C1534   1.385       .  A
C1534      C1535   1.401       .  A
C1534      N1540   1.344       .  A
C1535      H1544   1.082       .  S
C1536      C1539   1.373       .  A
N1537      C1538   1.353       .  A
N1537      H1547   1.045       .  S
C1538      C1539   1.394       .  A
C1539      H1545   1.083       .  S
N1540      C1541   1.354       .  A
N1540      H1548   1.045       .  S
C1541      C1542   1.393       .  A
C1542      H1546   1.083       .  S
C1549      C1554   1.385       .  A
C1549      C1550   1.402       .  A
C1549      N1555   1.339       .  A
C1550      C1551   1.400       .  A
C1550      H1561   1.082       .  S
C1551      C1560   1.380       .  A
C1551      C1552   1.384       .  A
C1552      C1553   1.404       .  A
C1552      N1558   1.341       .  A
C1553      C1554   1.401       .  A
C1553      H1562   1.082       .  S
C1554      C1557   1.381       .  A
N1555      C1556   1.354       .  A
N1555      H1565   1.045       .  S
C1556      C1557   1.394       .  A
C1557      H1563   1.082       .  S
N1558      C1559   1.356       .  A
N1558      H1566   1.045       .  S
C1559      C1560   1.394       .  A
C1560      H1564   1.082       .  S
C1567      C1572   1.385       .  A
C1567      C1568   1.397       .  A
C1567      N1573   1.337       .  A
C1568      C1569   1.395       .  A
C1568      H1579   1.083       .  S
C1569      C1578   1.370       .  A
C1569      C1570   1.384       .  A
C1570      C1571   1.412       .  A
C1570      N1576   1.350       .  A
C1571      C1572   1.412       .  A
C1571      H1580   1.082       .  S
C1572      C1575   1.390       .  A
N1573      C1574   1.352       .  A
N1573      H1583   1.045       .  S
C1574      C1575   1.400       .  A
C1575      H1581   1.082       .  S
N1576      C1577   1.359       .  A
N1576      H1584   1.044       .  S
C1577      C1578   1.391       .  A
C1578      H1582   1.083       .  S
C1585      C1590   1.385   1_545  A
C1585      C1586   1.404       .  A
C1585      N1591   1.347   1_545  A
C1586      C1587   1.405       .  A
C1586      H1597   1.082       .  S
C1587      C1596   1.377       .  A
C1587      C1588   1.385       .  A
C1588      C1589   1.404       .  A
C1588      N1594   1.347       .  A
C1589      C1590   1.404   1_545  A
C1589      H1598   1.082   1_545  S
C1590      C1593   1.376       .  A
N1591      C1592   1.355       .  A
N1591      H1601   1.045       .  S
C1592      C1593   1.394       .  A
C1593      H1599   1.082       .  S
N1594      C1595   1.356       .  A
N1594      H1602   1.045       .  S
C1595      C1596   1.396       .  A
C1596      H1600   1.082       .  S
C1603      C1608   1.384       .  A
C1603      C1604   1.406       .  A
C1603      N1609   1.341       .  A
C1604      C1605   1.403       .  A
C1604      H1615   1.082       .  S
C1605      C1614   1.383       .  A
C1605      C1606   1.384       .  A
C1606      C1607   1.404       .  A
C1606      N1612   1.340       .  A
C1607      C1608   1.401       .  A
C1607      H1616   1.082       .  S
C1608      C1611   1.383       .  A
N1609      C1610   1.357       .  A
N1609      H1619   1.045       .  S
C1610      C1611   1.395       .  A
C1611      H1617   1.082       .  S
N1612      C1613   1.355       .  A
N1612      H1620   1.045       .  S
C1613      C1614   1.396       .  A
C1614      H1618   1.082       .  S
C1621      C1626   1.385       .  A
C1621      C1622   1.403       .  A
C1621      N1627   1.346       .  A
C1622      C1623   1.404       .  A
C1622      H1633   1.082       .  S
C1623      C1632   1.376       .  A
C1623      C1624   1.385       .  A
C1624      C1625   1.403       .  A
C1624      N1630   1.345       .  A
C1625      C1626   1.403       .  A
C1625      H1634   1.082       .  S
C1626      C1629   1.375       .  A
N1627      C1628   1.355       .  A
N1627      H1637   1.045       .  S
C1628      C1629   1.396       .  A
C1629      H1635   1.082       .  S
N1630      C1631   1.355       .  A
N1630      H1638   1.045       .  S
C1631      C1632   1.396       .  A
C1632      H1636   1.083       .  S
C1639      C1644   1.385       .  A
C1639      C1640   1.403       .  A
C1640      C1641   1.404       .  A
C1641      C1650   1.377       .  A
C1641      C1642   1.385       .  A
C1642      C1643   1.404       .  A
C1642      N1648   1.346       .  A
C1643      C1644   1.404       .  A
C1643      H1652   1.082       .  S
C1644      C1647   1.377       .  A
N1645      H1655   1.045   1_554  S
C1646      C1647   1.395       .  A
C1647      H1653   1.082       .  S
N1648      C1649   1.355       .  A
N1648      H1656   1.045       .  S
C1649      C1650   1.395       .  A
C1650      H1654   1.083       .  S
C1657      C1662   1.384       .  A
C1657      C1658   1.408       .  A
C1657      N1663   1.345       .  A
C1658      C1659   1.406       .  A
C1659      C1660   1.384       .  A
C1660      C1661   1.407       .  A
C1660      N1666   1.345       .  A
C1661      C1662   1.405       .  A
C1661      H1670   1.082       .  S
C1662      C1665   1.385       .  A
N1663      C1664   1.358       .  A
N1663      H1673   1.045       .  S
C1664      C1665   1.397       .  A
C1665      H1671   1.082       .  S
N1666      H1674   1.045       .  S
C1667      C1668   1.397       .  A
C1668      H1672   1.082       .  S
C1675      C1680   1.384       .  A
C1675      C1676   1.399       .  A
C1675      N1681   1.339       .  A
C1676      C1677   1.398       .  A
C1676      H1687   1.083       .  S
C1677      C1686   1.371   1_455  A
C1677      C1678   1.385   1_455  A
C1678      C1679   1.408   1_655  A
C1678      N1684   1.348       .  A
C1679      C1680   1.408       .  A
C1679      H1688   1.082       .  S
C1680      C1683   1.386       .  A
N1681      C1682   1.354       .  A
N1681      H1691   1.045       .  S
C1682      C1683   1.399       .  A
C1683      H1689   1.082       .  S
N1684      C1685   1.357       .  A
N1684      H1692   1.045       .  S
C1685      C1686   1.392       .  A
C1686      H1690   1.083       .  S
C1693      C1698   1.384       .  A
C1693      C1694   1.403       .  A
C1693      N1699   1.341       .  A
C1694      C1695   1.401       .  A
C1694      H1705   1.082       .  S
C1695      C1704   1.379       .  A
C1695      C1696   1.384       .  A
C1696      C1697   1.407       .  A
C1696      N1702   1.344       .  A
C1697      C1698   1.405       .  A
C1697      H1706   1.082       .  S
C1698      C1701   1.383       .  A
N1699      C1700   1.355       .  A
N1699      H1709   1.045       .  S
C1700      C1701   1.396       .  A
C1701      H1707   1.082       .  S
N1702      C1703   1.357       .  A
N1702      H1710   1.045       .  S
C1703      C1704   1.392       .  A
C1704      H1708   1.082       .  S
C1711      C1716   1.384       .  A
C1711      C1712   1.400       .  A
C1711      N1717   1.339       .  A
C1712      C1713   1.398       .  A
C1712      H1723   1.083       .  S
C1713      C1722   1.373       .  A
C1713      C1714   1.384       .  A
C1714      C1715   1.410       .  A
C1714      N1720   1.350       .  A
C1715      C1716   1.409       .  A
C1715      H1724   1.082       .  S
C1716      C1719   1.387       .  A
N1717      C1718   1.354       .  A
N1717      H1727   1.045       .  S
C1718      C1719   1.398       .  A
C1719      H1725   1.082       .  S
N1720      C1721   1.358       .  A
N1720      H1728   1.044       .  S
C1721      C1722   1.393       .  A
C1722      H1726   1.083       .  S
C1729      C1734   1.384       .  A
C1729      C1730   1.406       .  A
C1729      N1735   1.342       .  A
C1730      C1731   1.403       .  A
C1730      H1741   1.082       .  S
C1731      C1740   1.383       .  A
C1731      C1732   1.384       .  A
C1732      C1733   1.405       .  A
C1732      N1738   1.342       .  A
C1733      C1734   1.403       .  A
C1733      H1742   1.082       .  S
C1734      C1737   1.383       .  A
N1735      C1736   1.357       .  A
N1735      H1745   1.045       .  S
C1736      C1737   1.395       .  A
C1737      H1743   1.082       .  S
N1738      C1739   1.357       .  A
N1738      H1746   1.045       .  S
C1739      C1740   1.395       .  A
C1740      H1744   1.082       .  S
C1747      C1752   1.385       .  A
C1747      C1748   1.404       .  A
C1747      N1753   1.342       .  A
C1748      C1749   1.402       .  A
C1748      H1759   1.082       .  S
C1749      C1758   1.379       .  A
C1749      C1750   1.385       .  A
C1750      C1751   1.402       .  A
C1750      N1756   1.341       .  A
C1751      C1752   1.400       .  A
C1751      H1760   1.082       .  S
C1752      C1755   1.378       .  A
N1753      C1754   1.357       .  A
C1754      C1755   1.392       .  A
C1755      H1761   1.082       .  S
N1756      C1757   1.355       .  A
N1756      H1764   1.045       .  S
C1757      C1758   1.394       .  A
C1758      H1762   1.082       .  S
