geometry optimzed in LAMMPS
_audit_creation_date              2020-12-01 
_audit_creation_method            'lammps2cif' 
_symmetry_space_group_name_H-M    'P1' 
_symmetry_Int_Tables_number       1 
_symmetry_cell_setting            triclinic 
loop_ 
_symmetry_equiv_pos_as_xyz 
  x,y,z 
_cell_length_a                    24.51500817 
_cell_length_b                    24.949576087100628 
_cell_length_c                    42.06310143803737 
_cell_angle_alpha                 90.34809733763201 
_cell_angle_beta                  90.7617232096752 
_cell_angle_gamma                 90.06267492121546 
loop_ 
_atom_site_label 
_atom_site_type_symbol 
_atom_site_fract_x 
_atom_site_fract_y 
_atom_site_fract_z 
_atom_site_charge 
C1          C  0.82068066  0.62360166  0.31791771     0.82300
N2          N  0.83883206  0.67108864  0.30696840    -0.76000
C3          C  0.88685033  0.69131287  0.31760738     0.84700
N4          N  0.91698482  0.66411872  0.33942570    -0.76000
C5          C  0.89907042  0.61631588  0.35061223     0.84800
N6          N  0.85057955  0.59602697  0.33981127    -0.77700
C7          C  0.78210130  0.79464802  0.10009357     0.82300
N8          N  0.74979786  0.82760390  0.08235893    -0.76000
C9          C  0.69751363  0.81323669  0.07477283     0.84700
N10         N  0.67804183  0.76505110  0.08476697    -0.76000
C11         C  0.71071859  0.73164451  0.10202239     0.84800
N12         N  0.76230601  0.74687167  0.10991762    -0.77700
C13         C  0.36215928  0.72233664  0.33595192     0.82300
N14         N  0.31117385  0.73867498  0.32755623    -0.76000
C15         C  0.29201212  0.78655075  0.33801013     0.84700
N16         N  0.32421918  0.81838768  0.35666611    -0.76000
C17         C  0.37565426  0.80280886  0.36482148     0.84800
N18         N  0.39463540  0.75464646  0.35429824    -0.77700
C19         C  0.88150969  0.23985262  0.12105160     0.82300
N20         N  0.83323300  0.26065343  0.13013521    -0.76000
C21         C  0.81693588  0.30901090  0.11918608     0.84700
N22         N  0.84906258  0.33678115  0.09889456    -0.76000
C23         C  0.89783732  0.31594445  0.08974358     0.84800
N24         N  0.91384914  0.26743035  0.10097694    -0.77700
C25         C  0.16145677  0.85543291  0.29504568     0.44500
N26         N  0.13559712  0.91453204  0.26136203     0.03400
C27         C  0.89222711  0.05624366  0.25785064    -0.04500
H28         H  0.87801678  0.84853698  0.23798671     0.08900
C29         C  0.96962369  0.87538431  0.13607221    -0.04800
Co30       Co  0.03214586  0.96921831  0.27960306     0.74200
N31         N  0.94003980  0.90626577  0.25163748    -0.24000
Co32       Co  0.93953366  0.96582828  0.21668896     0.74100
C33         C  0.91719343  0.85229279  0.14528765     0.44600
N34         N  0.10460629  0.90999401  0.16684268     0.03000
N35         N  0.94412577  0.90855347  0.18100887     0.03100
N36         N  0.95044594  0.05625317  0.29992779    -0.44900
H37         H  0.08636863  0.87038881  0.32629576     0.08900
N38         N  0.97548355  0.90800811  0.27561251     0.03400
N39         N  0.94421713  0.02560472  0.18192681     0.03100
C40         C  0.93099357  0.09461386  0.15319849     0.44800
N41         N  0.14032079  0.91061562  0.19071375    -0.23500
C42         C  0.09200837  0.07334991  0.29994946    -0.04400
N43         N  0.17555238  0.88082749  0.26827014    -0.44600
N44         N  0.91095274  0.06692741  0.17792202    -0.44800
C45         C  0.13960244  0.10228817  0.28932783     0.44500
N46         N  0.96777975  0.02418762  0.27686716     0.03400
N47         N  0.14071226  0.02742329  0.18976980    -0.23500
N48         N  0.09631324  0.91404017  0.28244599    -0.24000
N49         N  0.10640393  0.02628120  0.16537478     0.03000
H50         H  0.21623494  0.06940544  0.19874081     0.08900
H51         H  0.00738261  0.07883173  0.12359419     0.09000
N52         N  0.93365229  0.02274792  0.25240456    -0.24000
N53         N  0.98307415  0.90979060  0.15972830    -0.23600
N54         N  0.13004060  0.03188010  0.26050245     0.03400
C55         C  0.93105861  0.83602739  0.28291558     0.44800
C56         C  0.17262094  0.86741311  0.18791246    -0.04900
N57         N  0.98481487  0.02575203  0.16153719    -0.23600
H58         H  0.99127372  0.87078437  0.11398802     0.08900
N59         N  0.97168207  0.86651205  0.29483804    -0.44900
H60         H  0.20515464  0.85608692  0.20412539     0.08900
C61         C  0.16715380  0.08427032  0.15285038     0.44600
C62         C  0.10918980  0.87784865  0.30493946    -0.04400
Co63       Co  0.13784201  0.97125041  0.22569021     0.73800
N64         N  0.11020724  0.86835789  0.14763118    -0.44600
C65         C  0.90360536  0.07871544  0.28914456     0.44900
N66         N  0.16141102  0.07477919  0.26479928    -0.44600
Co67       Co  0.04490575  0.96791143  0.16275471     0.73900
C68         C  0.97976540  0.06793223  0.14232963    -0.04900
C69         C  0.90983587  0.86168088  0.25430129    -0.04500
N70         N  0.08924784  0.03044911  0.28076010    -0.24000
N71         N  0.90388702  0.87557530  0.17303777    -0.44700
H72         H  0.85587632  0.05995208  0.24317081     0.08900
C73         C  0.18010781  0.06314226  0.18413848    -0.04900
Cl74       Cl  0.03862719  0.96860350  0.22117874    -0.47900
C75         C  0.15238605  0.84012859  0.15930944     0.44700
H76         H  0.06385383  0.08309371  0.31869485     0.08900
N77         N  0.12164093  0.05882223  0.14224794    -0.44600
C78         C  0.25923340  0.62629452  0.12073801     0.82300
N79         N  0.22740610  0.59930657  0.09937288    -0.76000
C80         C  0.17862419  0.62029811  0.08990829     0.84700
N81         N  0.16230984  0.66832871  0.10191416    -0.76000
C82         C  0.19445950  0.69495714  0.12327573     0.84800
N83         N  0.24273640  0.67392038  0.13258614    -0.77700
C84         C  0.77249594  0.14022651  0.33453925     0.82300
N85         N  0.73947458  0.11004012  0.35306278    -0.76000
C86         C  0.69097856  0.13017910  0.36317388     0.84700
N87         N  0.67576350  0.18050178  0.35437925    -0.76000
C88         C  0.70843029  0.21027064  0.33546081     0.84800
N89         N  0.75656026  0.18993476  0.32554863    -0.77700
C90         C  0.19549450  0.32249792  0.35539489     0.82300
N91         N  0.24370240  0.33847618  0.34297999    -0.76000
C92         C  0.26895108  0.30778462  0.32091364     0.84700
N93         N  0.24622499  0.26097304  0.31118399    -0.76000
C94         C  0.19828974  0.24454631  0.32343385     0.84800
N95         N  0.17268968  0.27525225  0.34553795    -0.77700
C96         C  0.37189537  0.13800500  0.07323437     0.82300
N97         N  0.32486964  0.11804907  0.08540364    -0.76000
C98         C  0.29335896  0.14917137  0.10444129     0.84700
N99         N  0.30940631  0.19982647  0.11186616    -0.76000
C100        C  0.35605264  0.22004452  0.09975122     0.84800
N101        N  0.38714829  0.18918197  0.08039430    -0.77700
C102        C  0.67472179  0.57086277  0.28336124     0.44500
N103        N  0.60249115  0.56126190  0.25505796     0.03400
C104        C  0.43465932  0.34015540  0.25138680    -0.04500
H105        H  0.63425972  0.29146138  0.24213700     0.08900
C106        C  0.64355994  0.41331178  0.13920895    -0.04800
Co107      Co  0.53994954  0.46480773  0.27509259     0.74200
N108        N  0.59629235  0.36823335  0.24952271    -0.24000
Co109      Co  0.53897966  0.37279255  0.21315143     0.74100
C110        C  0.67145291  0.36585879  0.15060236     0.44600
N111        N  0.59753320  0.53772851  0.16035036     0.03000
N112        N  0.60044600  0.37805756  0.17870899     0.03100
N113        N  0.43768519  0.40183963  0.29125010    -0.44900
H114        H  0.65622376  0.49685113  0.31346436     0.08900
N115        N  0.59667741  0.40229470  0.27358792     0.03400
N116        N  0.48094703  0.37636143  0.17709875     0.03100
C117        C  0.42145775  0.35092111  0.14241086     0.44800
N118        N  0.59754910  0.57148680  0.18455644    -0.23500
C119        C  0.44889395  0.54167099  0.30045004    -0.04400
N120        N  0.64631575  0.59201426  0.25873550    -0.44600
N121        N  0.44618798  0.33746186  0.16993743    -0.44800
C122        C  0.42696222  0.59359807  0.29060322     0.44500
N123        N  0.47852133  0.40794663  0.27135625     0.03400
N124        N  0.47908042  0.56825668  0.18506803    -0.23500
N125        N  0.60151955  0.52151328  0.27571955    -0.24000
N126        N  0.47941942  0.53316042  0.16135185     0.03000
H127        H  0.42182772  0.63020361  0.19818869     0.08900
H128        H  0.43942197  0.42332536  0.11042029     0.09000
N129        N  0.47794115  0.37247433  0.24782420    -0.24000
N130        N  0.60020153  0.41778742  0.15800296    -0.23600
N131        N  0.48340721  0.56571719  0.25576906     0.03400
C132        C  0.65178701  0.33972433  0.28772398     0.44800
C133        C  0.63137340  0.61210884  0.17858040    -0.04900
N134        N  0.48182344  0.41435583  0.15549436    -0.23600
H135        H  0.65433495  0.44033538  0.12028463     0.08900
N136        N  0.62836301  0.38590548  0.29744493    -0.44900
H137        H  0.63553001  0.64816679  0.19282311     0.08900
C138        C  0.40691598  0.57796955  0.15357904     0.44600
C139        C  0.64562169  0.52441847  0.29463510    -0.04400
Co140      Co  0.54070196  0.56768016  0.22019210     0.73800
N141        N  0.62876713  0.55471020  0.13687599    -0.44600
C142        C  0.40856814  0.35993233  0.28009868     0.44900
N143        N  0.45103365  0.60617352  0.26310377    -0.44600
Co144      Co  0.53983872  0.47579598  0.15812596     0.73900
C145        C  0.44548640  0.40166769  0.13237949    -0.04900
C146        C  0.63015557  0.32769024  0.25615693    -0.04500
N147        N  0.48347445  0.52753088  0.27726775    -0.24000
N148        N  0.64303555  0.34588198  0.17517733    -0.44700
H149        H  0.42325763  0.30702261  0.23598387     0.08900
C150        C  0.43421511  0.59865448  0.18209824    -0.04900
Cl151      Cl  0.53989383  0.47025179  0.21664554    -0.47900
C152        C  0.65238289  0.60079636  0.14720001     0.44700
H153        H  0.44326743  0.52042243  0.32250205     0.08900
N154        N  0.43673449  0.53740295  0.14203106    -0.44600
N155        N  0.55557307  0.95014681  0.51898701    -0.34600
N156        N  0.50174997  0.88430594  0.47043352    -0.55100
N157        N  0.56334655  0.93955596  0.42072065    -0.34600
N158        N  0.61164867  0.01072113  0.46940835    -0.55100
C159        C  0.52027599  0.92323478  0.53754733     0.29000
C160        C  0.57951535  0.98874979  0.53702260     0.29000
C161        C  0.52727274  0.91120703  0.40253537     0.29000
C162        C  0.58610822  0.97751106  0.40208023     0.29000
C163        C  0.48488839  0.85805588  0.49663434     0.37600
C164        C  0.48698673  0.85379805  0.44504981     0.37600
C165        C  0.63872022  0.02949027  0.49543971     0.37600
C166        C  0.64060292  0.02632416  0.44390081     0.37600
C167        C  0.52196108  0.94513493  0.56796458    -0.19800
C168        C  0.55926969  0.98641175  0.56762749    -0.19800
C169        C  0.52801864  0.93073160  0.37173411    -0.19800
C170        C  0.56503527  0.97244158  0.37145106    -0.19800
C171        C  0.45873552  0.81089545  0.48775579    -0.20900
C172        C  0.46016835  0.80813865  0.45519950    -0.20900
C173        C  0.68455659  0.05785834  0.48638018    -0.20900
C174        C  0.68582564  0.05575385  0.45382134    -0.20900
C175        C  0.48972303  0.87716313  0.52837718    -0.16200
C176        C  0.62216199  0.02302015  0.52730875    -0.16200
C177        C  0.62627181  0.01573489  0.41168545    -0.16200
C178        C  0.49426962  0.86776305  0.41272877    -0.16200
H179        H  0.49978222  0.93203773  0.58858094     0.16700
H180        H  0.57101065  0.01101200  0.58787037     0.16700
H181        H  0.50407956  0.91665368  0.35154792     0.16700
H182        H  0.57498100  0.99655982  0.35102282     0.16700
H183        H  0.43996577  0.78168402  0.50307960     0.15000
H184        H  0.44296822  0.77623462  0.44067404     0.14900
H185        H  0.71422344  0.07782499  0.50163502     0.15000
H186        H  0.71694995  0.07346688  0.43919795     0.14900
H187        H  0.56558242  0.94060032  0.49590085     0.28200
H188        H  0.57342253  0.93209384  0.44423577     0.28200
N189        N  0.03993641  0.46289616  0.01916504    -0.34600
N190        N  0.10664604  0.51397438  0.97049724    -0.55100
N191        N  0.03807250  0.46524048  0.92028069    -0.34600
N192        N  0.96722419  0.42023265  0.96911702    -0.55100
C193        C  0.07308840  0.49313524  0.03799626     0.29000
C194        C  0.99876806  0.44466932  0.03731668     0.29000
C195        C  0.07046442  0.49650841  0.90220918     0.29000
C196        C  0.99729906  0.44569076  0.90141937     0.29000
C197        C  0.13709004  0.52691443  0.99649630     0.37600
C198        C  0.13507375  0.53005972  0.94490818     0.37600
C199        C  0.94171808  0.40002914  0.99477298     0.37600
C200        C  0.94164057  0.39953890  0.94309108     0.37600
C201        C  0.05336834  0.49301425  0.06877942    -0.19800
C202        C  0.00648854  0.46264648  0.06831670    -0.19800
C203        C  0.05062060  0.49584238  0.87116459    -0.19800
C204        C  0.00474072  0.46374721  0.87064626    -0.19800
C205        C  0.18491117  0.55185857  0.98736735    -0.20900
C206        C  0.18364560  0.55385311  0.95480318    -0.20900
C207        C  0.89924387  0.36692397  0.98500352    -0.20900
C208        C  0.89901476  0.36675521  0.95245071    -0.20900
C209        C  0.12121967  0.51993839  0.02846667    -0.16200
C210        C  0.95472241  0.41171981  0.02700321    -0.16200
C211        C  0.95404023  0.41141920  0.91094305    -0.16200
C212        C  0.11753694  0.52543246  0.91270012    -0.16200
H213        H  0.07069719  0.51286846  0.08951018     0.16700
H214        H  0.98087070  0.45492754  0.08854642     0.16700
H215        H  0.06727994  0.51653849  0.85093656     0.16700
H216        H  0.97949698  0.45510734  0.84994033     0.16700
H217        H  0.21718303  0.56757295  0.00257616     0.15000
H218        H  0.21502787  0.57100917  0.94012725     0.14900
H219        H  0.87089249  0.34541862  0.99977125     0.15000
H220        H  0.86994552  0.34535859  0.93754010     0.14900
H221        H  0.04610217  0.45375220  0.99552218     0.28200
H222        H  0.04420702  0.45664149  0.94400853     0.28200
N223        N  0.02648151  0.45357132  0.42352236    -0.34600
N224        N  0.97355028  0.52154039  0.47129526    -0.55100
N225        N  0.04868552  0.48087765  0.52024559    -0.34600
N226        N  0.09614510  0.40765445  0.47269160    -0.55100
C227        C  0.98393292  0.47253917  0.40617493     0.29000
C228        C  0.04847130  0.41222417  0.40709844     0.29000
C229        C  0.01452020  0.51002253  0.53867741     0.29000
C230        C  0.07841257  0.44841124  0.53956767     0.29000
C231        C  0.95002245  0.54160583  0.44459397     0.37600
C232        C  0.96056081  0.55522013  0.49540151     0.37600
C233        C  0.11936528  0.38477211  0.44693247     0.37600
C234        C  0.12946828  0.39740781  0.49775520     0.37600
C235        C  0.97919880  0.44331426  0.37811271    -0.19800
C236        C  0.01982105  0.40527731  0.37870594    -0.19800
C237        C  0.02371477  0.49679990  0.57028766    -0.19800
C238        C  0.06379844  0.45796774  0.57084147    -0.19800
C239        C  0.92117059  0.58770924  0.45191784    -0.20900
C240        C  0.92821489  0.59656710  0.48388844    -0.20900
C241        C  0.16743357  0.35938696  0.45580444    -0.20900
C242        C  0.17405824  0.36776323  0.48782697    -0.20900
C243        C  0.95170232  0.51771824  0.41392217    -0.16200
C244        C  0.09568987  0.38293447  0.41602972    -0.16200
C245        C  0.11870856  0.41084514  0.52988111    -0.16200
C246        C  0.97555276  0.54841604  0.52790028    -0.16200
H247        H  0.94998307  0.44919794  0.35894048     0.16700
H248        H  0.02780898  0.37641362  0.36003830     0.16700
H249        H  0.00323323  0.51296869  0.59085952     0.16700
H250        H  0.08008692  0.43877115  0.59192377     0.16700
H251        H  0.89723967  0.61249756  0.43600110     0.15000
H252        H  0.91132218  0.62989719  0.49703981     0.17300
H253        H  0.19471604  0.33644557  0.44102127     0.15000
H254        H  0.20773007  0.35305438  0.50219475     0.14900
H255        H  0.04163730  0.47020196  0.44442174     0.28200
H256        H  0.05260554  0.48398391  0.49588699     0.28200
N257        N  0.50527124  0.94748899  0.92065707    -0.34600
N258        N  0.44840132  0.00982275  0.96864696    -0.55100
N259        N  0.50401664  0.94756602  0.01930015    -0.34600
N260        N  0.56744505  0.89150444  0.97096989    -0.55100
C261        C  0.47998246  0.98354142  0.90160497     0.29000
C262        C  0.54160040  0.92043103  0.90283759     0.29000
C263        C  0.47784337  0.98474836  0.03712977     0.29000
C264        C  0.54105705  0.92223922  0.03827590     0.29000
C265        C  0.42071061  0.02653308  0.94242360     0.37600
C266        C  0.42045882  0.02769859  0.99411781     0.37600
C267        C  0.58243221  0.86225590  0.94533693     0.37600
C268        C  0.58394851  0.86376911  0.99692794     0.37600
C269        C  0.50025733  0.97888551  0.87106381    -0.19800
C270        C  0.53916838  0.93918999  0.87185985    -0.19800
C271        C  0.49779438  0.98222150  0.06812968    -0.19800
C272        C  0.53752021  0.94297960  0.06883602    -0.19800
C273        C  0.37537075  0.05583215  0.95129022    -0.20900
C274        C  0.37504763  0.05638699  0.98389823    -0.20900
C275        C  0.60912051  0.81612461  0.95504514    -0.20900
C276        C  0.60995943  0.81698679  0.98762880    -0.20900
C277        C  0.43677518  0.01796219  0.91054503    -0.16200
C278        C  0.57435966  0.87707432  0.91318999    -0.16200
C279        C  0.57719673  0.88032117  0.02897905    -0.16200
C280        C  0.43589107  0.02029758  0.02652203    -0.16200
H281        H  0.48782259  0.00104295  0.85016699     0.16700
H282        H  0.56236660  0.92517873  0.85173905     0.16700
H283        H  0.48527850  0.00637379  0.08820487     0.16700
H284        H  0.56123815  0.93124001  0.08952595     0.16700
H285        H  0.34556691  0.07492246  0.93590074     0.15000
H286        H  0.34453404  0.07567735  0.99836091     0.14900
H287        H  0.62601929  0.78486990  0.94019456     0.15000
H288        H  0.62725407  0.78620516  0.00269980     0.14900
H289        H  0.49610593  0.93934161  0.94403936     0.28200
H290        H  0.49561906  0.93886145  0.99568559     0.28200
C291        C  0.68028507  0.75026103  0.81810923     0.82300
N292        N  0.65460712  0.77844429  0.84118599    -0.76000
C293        C  0.67846101  0.82310870  0.85391493     0.84700
N294        N  0.72803846  0.83903026  0.84346208    -0.76000
C295        C  0.75342693  0.81069714  0.82037272     0.84800
N296        N  0.72959630  0.76641537  0.80775166    -0.77700
C297        C  0.79068048  0.30065922  0.83364431     0.82300
N298        N  0.80186145  0.24928712  0.82513531    -0.76000
C299        C  0.84956111  0.22621834  0.83424610     0.84700
N300        N  0.88656572  0.25483009  0.85154753    -0.76000
C301        C  0.87633641  0.30647090  0.85992542     0.84800
N302        N  0.82814344  0.32955029  0.85086908    -0.77700
C303        C  0.39005580  0.11655171  0.84522581     0.82300
N304        N  0.33966502  0.09850461  0.83625325    -0.76000
C305        C  0.30950965  0.12615038  0.81457946     0.84700
N306        N  0.32925825  0.17181828  0.80197105    -0.76000
C307        C  0.37921407  0.19003300  0.81071168     0.84800
N308        N  0.40964309  0.16259309  0.83240579    -0.77700
C309        C  0.20554712  0.72101520  0.84071530     0.82300
N310        N  0.17272912  0.69077101  0.85919035    -0.76000
C311        C  0.18576261  0.63898269  0.86567581     0.84700
N312        N  0.23229800  0.61759408  0.85360142    -0.76000
C313        C  0.26552536  0.64801065  0.83531833     0.84800
N314        N  0.25172877  0.69946026  0.82866430    -0.77700
C315        C  0.18745794  0.29606668  0.57604806     0.82300
N316        N  0.17235344  0.24616963  0.58527499    -0.76000
C317        C  0.20719496  0.21523176  0.60250595     0.84700
N318        N  0.25759526  0.23401059  0.61032722    -0.76000
C319        C  0.27345299  0.28334582  0.60059991     0.84800
N320        N  0.23812833  0.31466344  0.58384838    -0.77700
C321        C  0.68752891  0.20113512  0.62210879     0.82300
N322        N  0.73453187  0.17923409  0.63312922    -0.76000
C323        C  0.75060248  0.13072236  0.62220529     0.84700
N324        N  0.71987766  0.10414438  0.60023819    -0.76000
C325        C  0.67266091  0.12596449  0.58908297     0.84800
N326        N  0.65658468  0.17464640  0.60008774    -0.77700
C327        C  0.39357839  0.58003626  0.78911276     0.44500
N328        N  0.42426605  0.52538386  0.75417604     0.03400
C329        C  0.67217968  0.38984977  0.75723689    -0.04500
H330        H  0.68149909  0.59671466  0.73722520     0.08900
C331        C  0.59476153  0.56615451  0.63327401    -0.04800
Co332      Co  0.52876410  0.47342996  0.77483051     0.74200
N333        N  0.62033297  0.53812721  0.74944938    -0.24000
Co334      Co  0.62371360  0.47780834  0.71463989     0.74100
C335        C  0.64614575  0.59050942  0.64398572     0.44600
N336        N  0.46046707  0.53101059  0.66024991     0.03000
N337        N  0.61949489  0.53413790  0.67881112     0.03100
N338        N  0.61250602  0.38898314  0.79769505    -0.44900
H339        H  0.46811058  0.56664523  0.82203342     0.08900
N340        N  0.58398969  0.53632547  0.77241785     0.03400
N341        N  0.62123922  0.41717658  0.67985551     0.03100
C342        C  0.63618293  0.34702158  0.65217293     0.44800
N343        N  0.42404900  0.53056798  0.68321328    -0.23500
C344        C  0.47155378  0.36682078  0.79162683    -0.04400
N345        N  0.38192991  0.55594427  0.76114043    -0.44600
N346        N  0.65495898  0.37597841  0.67719608    -0.44800
C347        C  0.42605185  0.33628316  0.77870743     0.44500
N348        N  0.59496877  0.42005967  0.77410477     0.03400
N349        N  0.42490939  0.41302994  0.68144162    -0.23500
N350        N  0.46271921  0.52653724  0.77637109    -0.24000
N351        N  0.45995202  0.41433738  0.65800425     0.03000
H352        H  0.35116138  0.36815723  0.68899686     0.08900
H353        H  0.56076769  0.36064754  0.62028524     0.09000
N354        N  0.62987747  0.42189808  0.75058806    -0.24000
N355        N  0.58142050  0.53181586  0.65646488    -0.23600
N356        N  0.43336929  0.40848833  0.75203078     0.03400
C357        C  0.62625860  0.60978561  0.78038913     0.44800
C358        C  0.39329120  0.57498412  0.68047042    -0.04900
N359        N  0.58146602  0.41583988  0.65828388    -0.23600
H360        H  0.57367622  0.57005699  0.61065777     0.08900
N361        N  0.58608889  0.57863752  0.79150217    -0.44900
H362        H  0.36114485  0.58709242  0.69633063     0.08900
C363        C  0.40201524  0.35363158  0.64444231     0.44600
C364        C  0.44690285  0.56017074  0.79962539    -0.04400
Co365      Co  0.42539766  0.46932645  0.71771494     0.73800
N366        N  0.45693649  0.57367968  0.64187726    -0.44600
C367        C  0.66047446  0.36773018  0.78822576     0.44900
N368        N  0.40412425  0.36389485  0.75414812    -0.44600
Co369      Co  0.52063172  0.47320697  0.65757471     0.73900
C370        C  0.58760945  0.37276959  0.63964304    -0.04900
C371        C  0.64931837  0.58348144  0.75267573    -0.04500
N372        N  0.47319261  0.41070675  0.77358159    -0.24000
N373        N  0.65922491  0.56785791  0.67199535    -0.44700
H374        H  0.70908772  0.38684092  0.74353275     0.08900
C375        C  0.38716678  0.37564003  0.67510668    -0.04900
Cl376      Cl  0.52460850  0.47341433  0.71622025    -0.47900
C377        C  0.41532577  0.60288876  0.65296142     0.44700
H378        H  0.49967374  0.35704130  0.81074650     0.08900
N379        N  0.44679104  0.38030459  0.63471541    -0.44600
C380        C  0.78170331  0.64506590  0.60128740     0.82300
N381        N  0.80481425  0.69111432  0.61218141    -0.76000
C382        C  0.85698668  0.70349985  0.60471644     0.84700
N383        N  0.88677753  0.66888630  0.58672411    -0.76000
C384        C  0.86377657  0.62235212  0.57576707     0.84800
N385        N  0.81114573  0.61088651  0.58307124    -0.77700
C386        C  0.30968048  0.81990239  0.62350438     0.82300
N387        N  0.32778490  0.77115340  0.63252863    -0.76000
C388        C  0.37495043  0.75148913  0.62105307     0.84700
N389        N  0.40446206  0.78075282  0.60016405    -0.76000
C390        C  0.38643495  0.83006081  0.59089499     0.84800
N391        N  0.33886578  0.84946522  0.60269236    -0.77700
C392        C  0.89949644  0.86260740  0.78865915     0.44500
N393        N  0.96955847  0.87685507  0.76044756     0.03400
C394        C  0.12828990  0.10348638  0.75811306    -0.04500
H395        H  0.92191042  0.14246610  0.74456056     0.08900
C396        C  0.92240288  0.02269111  0.64338152    -0.04800
Co397      Co  0.02673814  0.97684150  0.78121228     0.74200
N398        N  0.96622642  0.06973000  0.75408009    -0.24000
Co399      Co  0.02463831  0.06723227  0.71903898     0.74100
C400        C  0.89423117  0.07035620  0.65429847     0.44600
N401        N  0.97256080  0.89848236  0.66569959     0.03000
N402        N  0.96443359  0.05902189  0.68375652     0.03100
N403        N  0.12758873  0.04287830  0.79804614    -0.44900
H404        H  0.91385416  0.93823238  0.81899432     0.08900
N405        N  0.96679117  0.03629732  0.77820485     0.03400
N406        N  0.08288640  0.06499629  0.68379012     0.03100
C407        C  0.14127867  0.09047204  0.64960294     0.44800
N408        N  0.97433261  0.86514025  0.68987411    -0.23500
C409        C  0.12069872  0.90441300  0.80836910    -0.04400
N410        N  0.92826490  0.84318812  0.76401414    -0.44600
N411        N  0.11613348  0.10480684  0.67661267    -0.44800
C412        C  0.14507542  0.85335248  0.79883935     0.44500
N413        N  0.08542476  0.03642500  0.77846610     0.03400
N414        N  0.09287891  0.87348888  0.69202102    -0.23500
N415        N  0.96843911  0.91699936  0.78112653    -0.24000
N416        N  0.09068663  0.90795939  0.66827124     0.03000
H417        H  0.15259012  0.81360297  0.70540734     0.08900
H418        H  0.12585990  0.01598579  0.61821166     0.09000
N419        N  0.08495388  0.07098356  0.75474565    -0.24000
N420        N  0.96543880  0.01879588  0.66312916    -0.23600
N421        N  0.08833612  0.87853320  0.76278746     0.03400
C422        C  0.90552905  0.09442391  0.78974028     0.44800
C423        C  0.94230741  0.82291963  0.68341142    -0.04900
N424        N  0.08329712  0.02600153  0.66250518    -0.23600
H425        H  0.91240143  0.99560715  0.62398768     0.08900
N426        N  0.93205129  0.05060748  0.80066525    -0.44900
H427        H  0.93970681  0.78703407  0.69761821     0.08900
C428        C  0.16489146  0.86571957  0.66098942     0.44600
C429        C  0.92546061  0.91132387  0.80000087    -0.04400
Co430      Co  0.03126224  0.87259346  0.72636135     0.73800
N431        N  0.94183288  0.87978783  0.64182277    -0.44600
C432        C  0.15586341  0.08475751  0.78686648     0.44900
N433        N  0.12219206  0.83957817  0.77076465    -0.44600
Co434      Co  0.02775555  0.96270872  0.66427851     0.73900
C435        C  0.11910587  0.03858349  0.63982423    -0.04900
C436        C  0.92854847  0.10741336  0.75911312    -0.04500
N437        N  0.08614257  0.91692449  0.78440448    -0.24000
N438        N  0.92198943  0.09093803  0.67934956    -0.44700
H439        H  0.13975205  0.13507533  0.74201690     0.08900
C440        C  0.13885749  0.84460840  0.68933831    -0.04900
Cl441      Cl  0.02753018  0.96983779  0.72272435    -0.47900
C442        C  0.92049657  0.83280082  0.65175962     0.44700
H443        H  0.12467255  0.92592930  0.83068072     0.08900
N444        N  0.13304367  0.90478359  0.64923493    -0.44600
C445        C  0.25932756  0.83912877  0.63612066    -0.11200
C446        C  0.21646233  0.85122408  0.64781399    -0.12800
C447        C  0.89839609  0.79138936  0.63121447    -0.11200
C448        C  0.88078243  0.75216430  0.61744438    -0.12800
C449        C  0.40239375  0.65547400  0.64149569    -0.11200
C450        C  0.39236357  0.69947391  0.63130905    -0.12800
C451        C  0.72824640  0.63001499  0.61188038    -0.11200
C452        C  0.68722070  0.61446292  0.62449060    -0.12800
C453        C  0.65671848  0.29604359  0.64248913    -0.11200
C454        C  0.67116803  0.25268039  0.63338002    -0.12800
C455        C  0.84354647  0.09070208  0.64261820    -0.11200
C456        C  0.80082187  0.10835271  0.63323399    -0.12800
C457        C  0.18823271  0.16580180  0.61584371    -0.11200
C458        C  0.16891728  0.12851600  0.62996946    -0.12800
C459        C  0.36432556  0.32519043  0.62399929    -0.11200
C460        C  0.32514656  0.30465822  0.61119505    -0.12800
C461        C  0.31391123  0.62521237  0.82157456    -0.11200
C462        C  0.35246464  0.60582698  0.80803584    -0.12800
C463        C  0.18842091  0.77367081  0.83099153    -0.11200
C464        C  0.17084611  0.81391629  0.81878554    -0.12800
C465        C  0.39764235  0.24021209  0.79838167    -0.11200
C466        C  0.40998189  0.28373693  0.78853204    -0.12800
C467        C  0.20979692  0.09829881  0.79752142    -0.11200
C468        C  0.25559406  0.10918236  0.80588477    -0.12800
C469        C  0.86355575  0.17372566  0.82269782    -0.11200
C470        C  0.87989097  0.13374564  0.80966203    -0.12800
C471        C  0.70118425  0.34382823  0.80883181    -0.11200
C472        C  0.74077174  0.32498773  0.82217021    -0.12800
C473        C  0.64167305  0.66042785  0.79383334    -0.11200
C474        C  0.65684271  0.70223375  0.80523607    -0.12800
C475        C  0.84876270  0.84180918  0.79938634    -0.11200
C476        C  0.80539768  0.82735482  0.80914766    -0.12800
C477        C  0.40432633  0.04465644  0.88496862    -0.14400
C478        C  0.42306030  0.08781308  0.86947857    -0.29600
H479        H  0.36325538  0.02997569  0.88030202     0.14600
H480        H  0.46352383  0.10309988  0.87530273     0.15200
C481        C  0.60067970  0.84387322  0.88846842    -0.14400
C482        C  0.65146634  0.85460794  0.87894072    -0.29600
H483        H  0.57736004  0.81113662  0.87790807     0.14600
H484        H  0.67349654  0.88821697  0.88954778     0.15200
C485        C  0.15124997  0.38205363  0.55469818    -0.14400
C486        C  0.14936004  0.32817324  0.55647537    -0.29600
H487        H  0.17831628  0.40493800  0.57029361     0.14600
H488        H  0.11952268  0.30647885  0.54200342     0.15200
C489        C  0.89372621  0.58477998  0.55479997    -0.14400
C490        C  0.94847394  0.58359463  0.55207714    -0.29600
H491        H  0.86939073  0.55694977  0.54055329     0.14600
H492        H  0.97387789  0.60831993  0.56762456     0.15200
C493        C  0.15058081  0.55388327  0.88847315    -0.14400
C494        C  0.14988036  0.60771165  0.88670413    -0.29600
H495        H  0.17621173  0.53042590  0.87279665     0.14600
H496        H  0.12188236  0.62992079  0.90165486     0.15200
C497        C  0.91725859  0.38797448  0.88583045    -0.14400
C498        C  0.91717719  0.33486729  0.88014418    -0.29600
H499        H  0.88862062  0.41400942  0.87350302     0.14600
H500        H  0.94778158  0.31035713  0.89204991     0.15200
C501        C  0.63930817  0.09776368  0.56478278    -0.14400
C502        C  0.65470967  0.05052803  0.55243809    -0.29600
H503        H  0.60159993  0.11623894  0.55655780     0.14600
H504        H  0.69270915  0.03184056  0.55993141     0.15200
C505        C  0.46254594  0.84532874  0.55354612    -0.14400
C506        C  0.41708630  0.86274455  0.56782665    -0.29600
H507        H  0.47795621  0.80534809  0.55833349     0.14600
H508        H  0.40102461  0.90200195  0.56172004     0.15200
C509        C  0.40534541  0.05148926  0.05099837    -0.14400
C510        C  0.40586074  0.10551708  0.05153040    -0.29600
H511        H  0.38225973  0.02956831  0.06854939     0.14600
H512        H  0.43212621  0.12673633  0.03521519     0.15200
C513        C  0.39404010  0.31150760  0.12286144    -0.11200
C514        C  0.37525596  0.27183525  0.11025923    -0.12800
C515        C  0.12018685  0.34664402  0.39182522    -0.14400
C516        C  0.16927652  0.35706973  0.37944758    -0.29600
H517        H  0.09645845  0.31252954  0.38335763     0.14600
H518        H  0.19125727  0.39269407  0.38737707     0.15200
C519        C  0.31883189  0.32537912  0.30704795    -0.11200
C520        C  0.36002784  0.34030021  0.29460593    -0.12800
C521        C  0.65655833  0.04525273  0.38655160    -0.14400
C522        C  0.65580602  0.09919706  0.38484767    -0.29600
H523        H  0.68028971  0.02213587  0.36970886     0.14600
H524        H  0.62892340  0.12154737  0.40039997     0.15200
C525        C  0.69003051  0.26088874  0.32306661    -0.11200
C526        C  0.67406506  0.29983526  0.30878813    -0.12800
C527        C  0.15648903  0.54474028  0.05349516    -0.14400
C528        C  0.14325164  0.59214020  0.06654664    -0.29600
H529        H  0.19497848  0.52546768  0.05940800     0.14600
H530        H  0.10519349  0.61124260  0.05946043     0.15200
C531        C  0.31068375  0.60556811  0.13094174    -0.11200
C532        C  0.35461971  0.59259983  0.14117694    -0.12800
C533        C  0.24475981  0.12770439  0.11844424    -0.11200
C534        C  0.20661261  0.10927653  0.13265140    -0.12800
C535        C  0.15914440  0.15258762  0.30176004    -0.11200
C536        C  0.17521145  0.19477823  0.31244971    -0.12800
C537        C  0.86239822  0.10167577  0.30910564    -0.11200
C538        C  0.82270014  0.11880781  0.32248987    -0.12800
C539        C  0.17848201  0.74572038  0.13594853    -0.11200
C540        C  0.16762635  0.78876202  0.14715737    -0.12800
C541        C  0.91864340  0.38853479  0.05157270    -0.14400
C542        C  0.93385421  0.34448351  0.06754427    -0.29600
H543        H  0.87804009  0.40513430  0.05435458     0.14600
H544        H  0.97377996  0.32729370  0.06306883     0.15200
C545        C  0.91157359  0.14542341  0.14247705    -0.11200
C546        C  0.89795054  0.18857198  0.13265875    -0.12800
C547        C  0.76576736  0.33025016  0.12954188    -0.11200
C548        C  0.72259516  0.34578653  0.13939283    -0.12800
C549        C  0.40898097  0.83773383  0.38609198    -0.14400
C550        C  0.46380888  0.83554248  0.38821177    -0.29600
H551        H  0.38746233  0.86641169  0.40088223     0.14600
H552        H  0.48662098  0.80952243  0.37244528     0.15200
C553        C  0.20064419  0.82622910  0.31393864    -0.11200
C554        C  0.24010407  0.80608369  0.32656033    -0.12800
C555        C  0.38287747  0.67259074  0.32341999    -0.11200
C556        C  0.40130633  0.63365127  0.31013673    -0.12800
C557        C  0.60891500  0.85053675  0.05408375    -0.14400
C558        C  0.66403823  0.84872850  0.05397147    -0.29600
H559        H  0.58655482  0.82861154  0.07194622     0.14600
H560        H  0.68570635  0.87379076  0.03727800     0.15200
C561        C  0.67406848  0.64165234  0.12689054    -0.11200
C562        C  0.69024751  0.68144209  0.11373413    -0.12800
C563        C  0.87602576  0.82848025  0.12477326    -0.11200
C564        C  0.83512683  0.81228963  0.11138102    -0.12800
C565        C  0.93209369  0.58853247  0.37507054    -0.14400
C566        C  0.91772067  0.54165981  0.38810583    -0.29600
H567        H  0.96927390  0.60816120  0.38341657     0.14600
H568        H  0.88158309  0.52029914  0.37980045     0.15200
C569        C  0.72630026  0.58946848  0.29524498    -0.11200
C570        C  0.76959775  0.60353558  0.30616699    -0.12800
C571        C  0.90469524  0.74190468  0.30593788    -0.11200
C572        C  0.91664333  0.78483391  0.29528127    -0.12800
loop_ 
_geom_bond_atom_site_label_1 
_geom_bond_atom_site_label_2 
_geom_bond_distance 
_geom_bond_site_symmetry_2 
_ccdc_geom_bond_type 
C1            N2   1.351       .  A
C1            N6   1.360       .  A
C1          C570   1.429       .  S
N2            C3   1.350       .  A
C3            N4   1.356       .  A
C3          C571   1.427       .  S
N4            C5   1.359       .  A
C5            N6   1.363       .  A
C5          C565   1.477       .  S
C7            N8   1.361       .  A
C7           N12   1.355       .  A
C7          C564   1.445       .  S
N8            C9   1.364       .  A
C9           N10   1.364       .  A
C9          C558   1.488       .  S
N10          C11   1.363       .  A
C11          N12   1.357       .  A
C11         C562   1.441       .  S
C13          N14   1.358       .  A
C13          N18   1.362       .  A
C13         C555   1.441       .  S
N14          C15   1.357       .  A
C15          N16   1.358       .  A
C15         C554   1.441       .  S
N16          C17   1.360       .  A
C17          N18   1.363       .  A
C17         C549   1.482       .  S
C19          N20   1.352       .  A
C19          N24   1.356       .  A
C19         C546   1.429       .  S
N20          C21   1.353       .  A
C21          N22   1.361       .  A
C21         C547   1.434       .  S
N22          C23   1.364       .  A
C23          N24   1.358       .  A
C23         C542   1.479       .  S
C25          N43   1.345       .  A
C25         C553   1.440       .  S
C25          C62   1.463       .  S
N26          N43   1.322       .  A
N26          N48   1.318       .  A
N26         Co63   2.070       .  S
C27          N52   1.337       .  A
C27          C65   1.451       .  S
C27          H72   1.082       .  S
H28          C69   1.081       .  S
C29          N53   1.348       .  A
C29          C33   1.466       .  S
C29          H58   1.082       .  S
Co30         N48   2.094       .  S
Co30         N38   2.068   1_455  S
Co30         N70   2.071   1_565  S
Co30         N46   2.094   1_465  S
Co30        Cl74   2.465       .  S
N31          C69   1.342       .  A
N31          N38   1.323       .  A
N31         Co32   2.097       .  S
Co32         N35   2.070       .  S
Co32         N52   2.068   1_565  S
Co32         N39   2.099   1_565  S
Co32        Cl74   2.435   1_655  S
C33          N71   1.345       .  A
C33         C563   1.444       .  S
N34          N41   1.323       .  A
N34          N64   1.321       .  A
N34         Co67   2.064       .  S
N35          N53   1.318       .  A
N35          N71   1.322       .  A
N36          C65   1.352       .  A
N36          N46   1.328       .  A
H37          C62   1.082       .  S
N38          N59   1.322       .  A
N39          N57   1.322       .  A
N39          N44   1.325       .  A
C40          N44   1.350       .  A
C40         C545   1.428       .  S
C40          C68   1.447       .  S
N41          C56   1.344       .  A
N41         Co63   2.105       .  S
C42          N70   1.338       .  A
C42          C45   1.449       .  S
C42          H76   1.082       .  S
C45          N66   1.352       .  A
C45         C535   1.436       .  S
N46          N52   1.318       .  A
N47          C73   1.338       .  A
N47          N49   1.318       .  A
N47         Co63   2.069   1_545  S
N48          C62   1.347       .  A
N49          N77   1.328       .  A
N49         Co67   2.096   1_545  S
H50          C73   1.082       .  S
H51          C68   1.082   1_455  S
N53         Co67   2.099   1_655  S
N54          N66   1.327       .  A
N54          N70   1.323       .  A
N54         Co63   2.110   1_545  S
C55          N59   1.342       .  A
C55         C572   1.428       .  S
C55          C69   1.457       .  S
C56          C75   1.460       .  S
C56          H60   1.081       .  S
N57          C68   1.335       .  A
N57         Co67   2.064   1_645  S
C61          N77   1.352       .  A
C61         C534   1.440       .  S
C61          C73   1.452       .  S
Co63        Cl74   2.438       .  S
N64          C75   1.341       .  A
C65         C537   1.439       .  S
Co67        Cl74   2.464       .  S
C75         C540   1.429       .  S
C78          N79   1.357       .  A
C78          N83   1.350       .  A
C78         C531   1.426       .  S
N79          C80   1.362       .  A
C80          N81   1.360       .  A
C80         C528   1.476       .  S
N81          C82   1.357       .  A
C82          N83   1.349       .  A
C82         C539   1.428       .  S
C84          N85   1.361       .  A
C84          N89   1.355       .  A
C84         C538   1.439       .  S
N85          C86   1.363       .  A
C86          N87   1.362       .  A
C86         C522   1.483       .  S
N87          C88   1.360       .  A
C88          N89   1.355       .  A
C88         C525   1.440       .  S
C90          N91   1.359       .  A
C90          N95   1.364       .  A
C90         C516   1.479       .  S
N91          C92   1.356       .  A
C92          N93   1.352       .  A
C92         C519   1.431       .  S
N93          C94   1.354       .  A
C94          N95   1.361       .  A
C94         C536   1.435       .  S
C96          N97   1.363       .  A
C96         N101   1.361       .  A
C96         C510   1.482       .  S
N97          C98   1.361       .  A
C98          N99   1.357       .  A
C98         C533   1.440       .  S
N99         C100   1.356       .  A
C100        N101   1.359       .  A
C100        C514   1.440       .  S
C102        N120   1.351       .  A
C102        C569   1.429       .  S
C102        C139   1.446       .  S
N103        N120   1.326       .  A
N103        N125   1.323       .  A
N103       Co140   2.101       .  S
C104        N129   1.343       .  A
C104        C142   1.458       .  S
C104        H149   1.081       .  S
H105        C146   1.082       .  S
C106        N130   1.337       .  A
C106        C110   1.449       .  S
C106        H135   1.082       .  S
Co107       N125   2.067       .  S
Co107       N115   2.092       .  S
Co107       N147   2.093       .  S
Co107       N123   2.072       .  S
Co107      Cl151   2.463       .  S
N108        C146   1.338       .  A
N108        N115   1.318       .  A
N108       Co109   2.067       .  S
Co109       N112   2.109       .  S
Co109       N129   2.103       .  S
Co109       N116   2.068       .  S
Co109      Cl151   2.435       .  S
C110        N148   1.352       .  A
C110        C548   1.435       .  S
N111        N118   1.317       .  A
N111        N141   1.329       .  A
N111       Co144   2.094       .  S
N112        N130   1.323       .  A
N112        N148   1.327       .  A
N113        C142   1.344       .  A
N113        N123   1.323       .  A
H114        C139   1.081       .  S
N115        N136   1.328       .  A
N116        N134   1.318       .  A
N116        N121   1.322       .  A
C117        N121   1.344       .  A
C117        C513   1.438       .  S
C117        C145   1.463       .  S
N118        C133   1.336       .  A
N118       Co140   2.063       .  S
C119        N147   1.346       .  A
C119        C122   1.463       .  S
C119        H153   1.082       .  S
C122        N143   1.344       .  A
C122        C556   1.440       .  S
N123        N129   1.324       .  A
N124        C150   1.342       .  A
N124        N126   1.323       .  A
N124       Co140   2.099       .  S
N125        C139   1.335       .  A
N126        N154   1.321       .  A
N126       Co144   2.066       .  S
H127        C150   1.081       .  S
H128        C145   1.082       .  S
N130       Co144   2.071       .  S
N131        N143   1.322       .  A
N131        N147   1.318       .  A
N131       Co140   2.067       .  S
C132        N136   1.351       .  A
C132        C526   1.440       .  S
C132        C146   1.453       .  S
C133        C152   1.450       .  S
C133        H137   1.082       .  S
N134        C145   1.346       .  A
N134       Co144   2.091       .  S
C138        N154   1.342       .  A
C138        C532   1.426       .  S
C138        C150   1.457       .  S
Co140      Cl151   2.435       .  S
N141        C152   1.353       .  A
C142        C520   1.432       .  S
Co144      Cl151   2.466       .  S
C152        C561   1.440       .  S
N155        C160   1.351       .  A
N155        C159   1.354       .  A
N155        H187   1.031       .  S
N156        C163   1.355       .  A
N156        C164   1.353       .  A
N157        C162   1.357       .  A
N157        C161   1.357       .  A
N157        H188   1.034       .  S
N158        C165   1.354       .  A
N158        C166   1.353       .  A
C159        C167   1.388       .  A
C159        C175   1.420       .  A
C160        C176   1.416   1_565  A
C160        C168   1.387       .  A
C161        C169   1.387       .  A
C161        C178   1.423       .  A
C162        C177   1.423   1_565  A
C162        C170   1.387       .  A
C163        C175   1.418       .  A
C163        C171   1.386       .  A
C164        C178   1.419       .  A
C164        C172   1.387       .  A
C165        C173   1.386       .  A
C165        C176   1.416       .  A
C166        C174   1.387       .  A
C166        C177   1.419       .  A
C167        H179   1.082       .  S
C167        C168   1.377       .  A
C168        H180   1.082   1_565  S
C169        H181   1.082       .  S
C169        C170   1.380       .  A
C170        H182   1.082       .  S
C171        H183   1.082       .  S
C171        C172   1.372       .  A
C172        H184   1.082       .  S
C173        H185   1.082       .  S
C173        C174   1.371       .  A
C174        H186   1.082       .  S
C175        C505   1.491       .  S
C176        C502   1.481       .  S
C177        C521   1.497       .  S
C178        C550   1.495       .  S
N189        C194   1.354   1_455  A
N189        C193   1.353       .  A
N189        H221   1.032   1_554  S
N190        C197   1.353       .  A
N190        C198   1.353       .  A
N191        C196   1.356   1_455  A
N191        C195   1.356       .  A
N191        H222   1.031       .  S
N192        C199   1.354       .  A
N192        C200   1.354       .  A
C193        C201   1.388       .  A
C193        C209   1.419       .  A
C194        C210   1.418       .  A
C194        C202   1.387   1_655  A
C195        C203   1.387       .  A
C195        C212   1.424       .  A
C196        C211   1.425       .  A
C196        C204   1.387   1_655  A
C197        C209   1.417   1_556  A
C197        C205   1.387       .  A
C198        C212   1.420       .  A
C198        C206   1.388       .  A
C199        C207   1.385       .  A
C199        C210   1.417   1_556  A
C200        C208   1.389       .  A
C200        C211   1.423       .  A
C201        H213   1.082       .  S
C201        C202   1.376       .  A
C202        H214   1.082   1_455  S
C203        H215   1.082       .  S
C203        C204   1.380       .  A
C204        H216   1.082   1_455  S
C205        H217   1.082   1_556  S
C205        C206   1.371       .  A
C206        H218   1.082       .  S
C207        H219   1.082       .  S
C207        C208   1.369       .  A
C208        H220   1.081       .  S
C209        C527   1.485       .  S
C210        C541   1.488       .  S
C211        C497   1.496       .  S
C212        C493   1.493       .  S
N223        C228   1.354       .  A
N223        C227   1.353   1_455  A
N223        H255   1.034       .  S
N224        C231   1.355       .  A
N224        C232   1.354       .  A
N225        C230   1.357       .  A
N225        C229   1.358       .  A
N225        H256   1.034       .  S
N226        C233   1.354       .  A
N226        C234   1.351       .  A
C227        C235   1.387       .  A
C227        C243   1.416       .  A
C228        C244   1.417       .  A
C228        C236   1.387       .  A
C229        C237   1.387       .  A
C229        C246   1.425   1_455  A
C230        C245   1.424       .  A
C230        C238   1.387       .  A
C231        C243   1.419       .  A
C231        C239   1.386       .  A
C232        C246   1.422       .  A
C232        C240   1.387       .  A
C233        C241   1.386       .  A
C233        C244   1.417       .  A
C234        C242   1.388       .  A
C234        C245   1.419       .  A
C235        H247   1.082       .  S
C235        C236   1.376   1_655  A
C236        H248   1.082       .  S
C237        H249   1.082       .  S
C237        C238   1.381       .  A
C238        H250   1.082       .  S
C239        H251   1.082       .  S
C239        C240   1.370       .  A
C240        H252   1.082       .  S
C241        H253   1.081       .  S
C241        C242   1.369       .  A
C242        H254   1.082       .  S
C243        C566   1.488       .  S
C244        C515   1.491       .  S
C245        C485   1.493       .  S
C246        C490   1.501       .  S
N257        C262   1.350       .  A
N257        C261   1.354       .  A
N257        H289   1.033       .  S
N258        C265   1.356       .  A
N258        C266   1.353       .  A
N259        C264   1.360       .  A
N259        C263   1.357       .  A
N259        H290   1.033   1_554  S
N260        C267   1.353       .  A
N260        C268   1.354       .  A
C261        C269   1.388       .  A
C261        C277   1.418   1_565  A
C262        C278   1.415       .  A
C262        C270   1.388       .  A
C263        C271   1.388       .  A
C263        C280   1.428   1_565  A
C264        C279   1.428       .  A
C264        C272   1.387       .  A
C265        C277   1.418       .  A
C265        C273   1.385       .  A
C266        C280   1.423   1_556  A
C266        C274   1.389       .  A
C267        C275   1.386       .  A
C267        C278   1.415       .  A
C268        C276   1.387       .  A
C268        C279   1.419   1_556  A
C269        H281   1.082   1_565  S
C269        C270   1.376       .  A
C270        H282   1.082       .  S
C271        H283   1.082   1_565  S
C271        C272   1.382       .  A
C272        H284   1.082       .  S
C273        H285   1.082       .  S
C273        C274   1.372       .  A
C274        H286   1.082       .  S
C275        H287   1.082       .  S
C275        C276   1.370       .  A
C276        H288   1.082   1_556  S
C277        C477   1.490       .  S
C278        C481   1.481       .  S
C279        C557   1.504       .  S
C280        C509   1.496       .  S
C291        N292   1.357       .  A
C291        N296   1.352       .  A
C291        C474   1.429       .  S
N292        C293   1.361       .  A
C293        N294   1.358       .  A
C293        C482   1.474       .  S
N294        C295   1.356       .  A
C295        N296   1.352       .  A
C295        C476   1.427       .  S
C297        N298   1.358       .  A
C297        N302   1.365       .  A
C297        C472   1.445       .  S
N298        C299   1.356       .  A
C299        N300   1.355       .  A
C299        C469   1.438       .  S
N300        C301   1.358       .  A
C301        N302   1.366       .  A
C301        C498   1.482       .  S
C303        N304   1.362       .  A
C303        N308   1.362       .  A
C303        C478   1.482       .  S
N304        C305   1.358       .  A
C305        N306   1.352       .  A
C305        C468   1.430       .  S
N306        C307   1.351       .  A
C307        N308   1.360       .  A
C307        C465   1.433       .  S
C309        N310   1.358       .  A
C309        N314   1.357       .  A
C309        C463   1.440       .  S
N310        C311   1.360       .  A
C311        N312   1.363       .  A
C311        C494   1.481       .  S
N312        C313   1.361       .  A
C313        N314   1.358       .  A
C313        C461   1.442       .  S
C315        N316   1.359       .  A
C315        N320   1.361       .  A
C315        C486   1.477       .  S
N316        C317   1.357       .  A
C317        N318   1.357       .  A
C317        C457   1.437       .  S
N318        C319   1.358       .  A
C319        N320   1.360       .  A
C319        C460   1.438       .  S
C321        N322   1.353       .  A
C321        N326   1.358       .  A
C321        C454   1.428       .  S
N322        C323   1.353       .  A
C323        N324   1.354       .  A
C323        C456   1.425       .  S
N324        C325   1.359       .  A
C325        N326   1.358       .  A
C325        C501   1.475       .  S
C327        N345   1.345       .  A
C327        C462   1.442       .  S
C327        C364   1.462       .  S
N328        N345   1.323       .  A
N328        N350   1.318       .  A
N328       Co365   2.070       .  S
C329        N354   1.338       .  A
C329        C367   1.451       .  S
C329        H374   1.082       .  S
H330        C371   1.081       .  S
C331        N355   1.346       .  A
C331        C335   1.463       .  S
C331        H360   1.082       .  S
Co332       N350   2.095       .  S
Co332       N340   2.075       .  S
Co332       N372   2.074       .  S
Co332       N348   2.101       .  S
Co332      Cl376   2.466       .  S
N333        C371   1.341       .  A
N333        N340   1.324       .  A
N333       Co334   2.096       .  S
Co334       N337   2.069       .  S
Co334       N354   2.068       .  S
Co334       N341   2.098       .  S
Co334      Cl376   2.434       .  S
C335        N373   1.345       .  A
C335        C452   1.439       .  S
N336        N343   1.324       .  A
N336        N366   1.322       .  A
N336       Co369   2.068       .  S
N337        N355   1.317       .  A
N337        N373   1.322       .  A
N338        C367   1.354       .  A
N338        N348   1.330       .  A
H339        C364   1.082       .  S
N340        N361   1.323       .  A
N341        N359   1.323       .  A
N341        N346   1.325       .  A
C342        N346   1.349       .  A
C342        C453   1.427       .  S
C342        C370   1.448       .  S
N343        C358   1.346       .  A
N343       Co365   2.114       .  S
C344        N372   1.337       .  A
C344        C347   1.448       .  S
C344        H378   1.081       .  S
C347        N368   1.351       .  A
C347        C466   1.433       .  S
N348        N354   1.318       .  A
N349        C375   1.336       .  A
N349        N351   1.317       .  A
N349       Co365   2.067       .  S
N350        C364   1.346       .  A
N351        N379   1.329       .  A
N351       Co369   2.090       .  S
H352        C375   1.082       .  S
H353        C370   1.082       .  S
N355       Co369   2.088       .  S
N356        N368   1.327       .  A
N356        N372   1.324       .  A
N356       Co365   2.108       .  S
C357        N361   1.344       .  A
C357        C473   1.430       .  S
C357        C371   1.455       .  S
C358        C377   1.463       .  S
C358        H362   1.081       .  S
N359        C370   1.336       .  A
N359       Co369   2.068       .  S
C363        N379   1.352       .  A
C363        C459   1.438       .  S
C363        C375   1.450       .  S
Co365      Cl376   2.436       .  S
N366        C377   1.341       .  A
C367        C471   1.445       .  S
Co369      Cl376   2.467       .  S
C377        C449   1.435       .  S
C380        N381   1.355       .  A
C380        N385   1.358       .  A
C380        C451   1.440       .  S
N381        C382   1.357       .  A
C382        N383   1.364       .  A
C382        C448   1.443       .  S
N383        C384   1.365       .  A
C384        N385   1.361       .  A
C384        C489   1.485       .  S
C386        N387   1.350       .  A
C386        N391   1.359       .  A
C386        C445   1.432       .  S
N387        C388   1.350       .  A
C388        N389   1.361       .  A
C388        C450   1.434       .  S
N389        C390   1.365       .  A
C390        N391   1.362       .  A
C390        C506   1.483       .  S
C392        N410   1.349       .  A
C392        C475   1.427       .  S
C392        C429   1.447       .  S
N393        N410   1.325       .  A
N393        N415   1.323       .  A
N393       Co430   2.100   1_655  S
C394        N419   1.341       .  A
C394        C432   1.457       .  S
C394        H439   1.081       .  S
H395        C436   1.082       .  S
C396        N420   1.338       .  A
C396        C400   1.451       .  S
C396        H425   1.082   1_545  S
Co397       N415   2.066   1_455  S
Co397       N405   2.092   1_465  S
Co397       N437   2.092       .  S
Co397       N413   2.072   1_565  S
Co397      Cl441   2.466       .  S
N398        C436   1.337       .  A
N398        N405   1.317       .  A
N398       Co399   2.069   1_655  S
Co399       N402   2.088   1_455  S
Co399       N419   2.095       .  S
Co399       N406   2.073       .  S
Co399      Cl441   2.437   1_545  S
C400        N438   1.346       .  A
C400        C455   1.425       .  S
N401        N408   1.318       .  A
N401        N431   1.329       .  A
N401       Co434   2.098   1_655  S
N402        N420   1.323       .  A
N402        N438   1.323       .  A
N403        C432   1.344       .  A
N403        N413   1.322       .  A
H404        C429   1.082       .  S
N405        N426   1.328       .  A
N406        N424   1.318       .  A
N406        N411   1.323       .  A
C407        N411   1.346       .  A
C407        C458   1.437       .  S
C407        C435   1.458       .  S
N408        C423   1.338       .  A
N408       Co430   2.068   1_655  S
C409        N437   1.346       .  A
C409        C412   1.464       .  S
C409        H443   1.082       .  S
C412        N433   1.343       .  A
C412        C464   1.438       .  S
N413        N419   1.323       .  A
N414        C440   1.344       .  A
N414        N416   1.323       .  A
N414       Co430   2.104       .  S
N415        C429   1.336       .  A
N416        N444   1.322       .  A
N416       Co434   2.068       .  S
H417        C440   1.081       .  S
H418        C435   1.082       .  S
N420       Co434   2.073   1_645  S
N421        N433   1.321       .  A
N421        N437   1.318       .  A
N421       Co430   2.066       .  S
C422        N426   1.352       .  A
C422        C470   1.437       .  S
C422        C436   1.452       .  S
C423        C442   1.451       .  S
C423        H427   1.082       .  S
N424        C435   1.343       .  A
N424       Co434   2.086   1_545  S
C428        N444   1.342       .  A
C428        C446   1.433       .  S
C428        C440   1.461       .  S
Co430      Cl441   2.434       .  S
N431        C442   1.354       .  A
C432        C467   1.430       .  S
Co434      Cl441   2.464       .  S
C442        C447   1.443       .  S
C445        C446   1.204       .  T
C447        C448   1.210       .  T
C449        C450   1.205       .  T
C451        C452   1.208       .  T
C453        C454   1.201       .  T
C455        C456   1.200       .  T
C457        C458   1.207       .  T
C459        C460   1.207       .  T
C461        C462   1.210       .  T
C463        C464   1.208       .  T
C465        C466   1.204       .  T
C467        C468   1.202       .  T
C469        C470   1.207       .  T
C471        C472   1.211       .  T
C473        C474   1.202       .  T
C475        C476   1.201       .  T
C477        C478   1.345       .  D
C477        H479   1.086       .  S
C478        H480   1.087       .  S
C481        C482   1.340       .  D
C481        H483   1.086       .  S
C482        H484   1.087       .  S
C485        C486   1.348       .  D
C485        H487   1.086       .  S
C486        H488   1.087       .  S
C489        C490   1.349       .  D
C489        H491   1.087       .  S
C490        H492   1.086       .  S
C493        C494   1.346       .  D
C493        H495   1.086       .  S
C494        H496   1.087       .  S
C497        C498   1.345       .  D
C497        H499   1.086       .  S
C498        H500   1.087       .  S
C501        C502   1.342       .  D
C501        H503   1.087       .  S
C502        H504   1.086       .  S
C505        C506   1.344       .  D
C505        H507   1.086       .  S
C506        H508   1.087       .  S
C509        C510   1.348       .  D
C509        H511   1.086       .  S
C510        H512   1.087       .  S
C513        C514   1.208       .  T
C515        C516   1.343       .  D
C515        H517   1.086       .  S
C516        H518   1.087       .  S
C519        C520   1.203       .  T
C521        C522   1.348       .  D
C521        H523   1.086       .  S
C522        H524   1.087       .  S
C525        C526   1.208       .  T
C527        C528   1.343       .  D
C527        H529   1.086       .  S
C528        H530   1.087       .  S
C531        C532   1.200       .  T
C533        C534   1.208       .  T
C535        C536   1.206       .  T
C537        C538   1.208       .  T
C539        C540   1.202       .  T
C541        C542   1.342       .  D
C541        H543   1.086       .  S
C542        H544   1.087       .  S
C545        C546   1.201       .  T
C547        C548   1.205       .  T
C549        C550   1.347       .  D
C549        H551   1.087       .  S
C550        H552   1.086       .  S
C553        C554   1.209       .  T
C555        C556   1.209       .  T
C557        C558   1.352       .  D
C557        H559   1.086       .  S
C558        H560   1.087       .  S
C561        C562   1.209       .  T
C563        C564   1.211       .  T
C565        C566   1.343       .  D
C565        H567   1.087       .  S
C566        H568   1.086       .  S
C569        C570   1.202       .  T
C571        C572   1.201       .  T
