geometry optimzed in LAMMPS
_audit_creation_date              2020-12-01 
_audit_creation_method            'lammps2cif' 
_symmetry_space_group_name_H-M    'P1' 
_symmetry_Int_Tables_number       1 
_symmetry_cell_setting            triclinic 
loop_ 
_symmetry_equiv_pos_as_xyz 
  x,y,z 
_cell_length_a                    29.57990582 
_cell_length_b                    29.656975311924334 
_cell_length_c                    40.632884470124814 
_cell_angle_alpha                 89.82827612848564 
_cell_angle_beta                  89.9618776717056 
_cell_angle_gamma                 90.22814060098439 
loop_ 
_atom_site_label 
_atom_site_type_symbol 
_atom_site_fract_x 
_atom_site_fract_y 
_atom_site_fract_z 
_atom_site_charge 
O1          O  0.85915308  0.90579865  0.58604986    -0.72700
O2          O  0.81001146  0.91096049  0.67764535    -0.73700
O3          O  0.86330442  0.97044139  0.63711449    -0.62300
O4          O  0.80801753  0.84646641  0.62609522    -0.70700
O5          O  0.87094831  0.81570950  0.64506913    -0.70300
O6          O  0.92447218  0.93735457  0.65739689    -0.61500
O7          O  0.87181058  0.87874564  0.69721070    -0.74000
O8          O  0.92187104  0.87466934  0.60505924    -0.72800
Cu9        Cu  0.83288034  0.90965702  0.63116734     1.04600
Cu10       Cu  0.89944736  0.87573678  0.65188298     1.04300
C11         C  0.89791588  0.88856350  0.58085657     0.93500
C12         C  0.83238422  0.89503383  0.70191163     0.92600
C13         C  0.90345476  0.97288331  0.64867535     0.84800
C14         C  0.83120358  0.81144056  0.63339882     0.91000
O15         O  0.04119275  0.14494601  0.63080187    -0.72700
O16         O  0.16559359  0.20064074  0.61949470    -0.73700
O17         O  0.10878494  0.14365974  0.58054143    -0.62300
O18         O  0.09799862  0.20280617  0.66902737    -0.70700
O19         O  0.13027569  0.14362019  0.69231980    -0.70300
O20         O  0.14058861  0.08390523  0.60368234    -0.61500
O21         O  0.19631970  0.14017135  0.64236268    -0.74000
O22         O  0.07435484  0.08640093  0.65466790    -0.72800
Cu23       Cu  0.10219451  0.17508412  0.62406634     1.04600
Cu24       Cu  0.13624419  0.11140372  0.64899455     1.04300
C25         C  0.03862698  0.10667294  0.64529089     0.93500
C26         C  0.20053474  0.17921279  0.62953346     0.92600
C27         C  0.12703034  0.10484714  0.57795982     0.84800
C28         C  0.11315573  0.18304454  0.69469405     0.91000
O29         O  0.13498426  0.31005708  0.82574516    -0.72700
O30         O  0.14426921  0.36071387  0.91773572    -0.73700
O31         O  0.19979850  0.30712797  0.87720939    -0.62300
O32         O  0.07996107  0.36516846  0.86614293    -0.70700
O33         O  0.04490482  0.30505432  0.88669496    -0.70300
O34         O  0.16696337  0.24577935  0.89737573    -0.61500
O35         O  0.11044548  0.29945401  0.93708987    -0.74000
O36         O  0.10174659  0.24903182  0.84653005    -0.72800
Cu37       Cu  0.14074389  0.33791252  0.87094262     1.04600
Cu38       Cu  0.10466722  0.27269534  0.89249748     1.04300
C39         C  0.11781670  0.27076092  0.82198482     0.93500
C40         C  0.12945140  0.33745687  0.94209876     0.92600
C41         C  0.20280187  0.26759951  0.88939205     0.84800
C42         C  0.04373189  0.34526920  0.87522242     0.91000
O43         O  0.81129503  0.53543884  0.85412744    -0.72700
O44         O  0.86399660  0.54402389  0.94454390    -0.73700
O45         O  0.80791237  0.60023114  0.90576027    -0.62300
O46         O  0.86881315  0.47941005  0.89274363    -0.70700
O47         O  0.92780318  0.51593722  0.87175084    -0.70300
O48         O  0.86869775  0.63405443  0.88544022    -0.61500
O49         O  0.92437725  0.57892340  0.92460458    -0.74000
O50         O  0.87089531  0.57065473  0.83320029    -0.72800
Cu51       Cu  0.83589650  0.53847894  0.89999881     1.04600
Cu52       Cu  0.90003680  0.57597873  0.87806271     1.04300
C53         C  0.83230704  0.55170665  0.82931140     0.93500
C54         C  0.90199585  0.56348396  0.94920378     0.92600
C55         C  0.82915268  0.63635917  0.89780417     0.84800
C56         C  0.90812920  0.47911181  0.87959552     0.91000
O57         O  0.53524717  0.30211049  0.63309309    -0.72700
O58         O  0.41238078  0.24251191  0.62690919    -0.73700
O59         O  0.46610453  0.29795389  0.58520561    -0.62300
O60         O  0.48191580  0.24531986  0.67493121    -0.70700
O61         O  0.44916273  0.30507798  0.69698244    -0.70300
O62         O  0.43448749  0.35885546  0.60642379    -0.61500
O63         O  0.38111521  0.30367189  0.64793671    -0.74000
O64         O  0.50228590  0.36141733  0.65598769    -0.72800
Cu65       Cu  0.47511415  0.26985591  0.62931687     1.04600
Cu66       Cu  0.44080076  0.33437572  0.65261546     1.04300
C67         C  0.53767249  0.34157146  0.64558197     0.93500
C68         C  0.37717213  0.26408203  0.63615163     0.92600
C69         C  0.44744788  0.33634909  0.58135637     0.84800
C70         C  0.46736065  0.26624104  0.70018183     0.91000
O71         O  0.77304820  0.53251341  0.67369856    -0.72700
O72         O  0.71550822  0.54191897  0.58402834    -0.73700
O73         O  0.77194935  0.59887573  0.62320863    -0.62300
O74         O  0.71552163  0.47515002  0.63437727    -0.70700
O75         O  0.65633710  0.50778521  0.65786057    -0.70300
O76         O  0.71062668  0.62928250  0.64495467    -0.61500
O77         O  0.65494144  0.57265827  0.60665435    -0.74000
O78         O  0.71262853  0.56448013  0.69580118    -0.72800
Cu79       Cu  0.74621860  0.53586383  0.62805995     1.04600
Cu80       Cu  0.68161344  0.56945914  0.65207463     1.04300
C81         C  0.75226338  0.54799508  0.69883253     0.93500
C82         C  0.67621377  0.55930724  0.58111743     0.92600
C83         C  0.74984447  0.63370180  0.63237252     0.84800
C84         C  0.67647066  0.47245975  0.64780319     0.91000
O85         O  0.76842803  0.91461593  0.85544437    -0.72700
O86         O  0.71415090  0.90539881  0.94599248    -0.73700
O87         O  0.77088162  0.84993356  0.90693925    -0.62300
O88         O  0.71010698  0.97057317  0.89417509    -0.70700
O89         O  0.65134696  0.93424452  0.87290114    -0.70300
O90         O  0.71040312  0.81586807  0.88624385    -0.61500
O91         O  0.65449027  0.87033779  0.92499573    -0.74000
O92         O  0.70857247  0.87975884  0.83451117    -0.72800
Cu93       Cu  0.74299889  0.91155151  0.90136519     1.04600
Cu94       Cu  0.67910333  0.87409900  0.87895422     1.04300
C95         C  0.74743118  0.89809985  0.83075236     0.93500
C96         C  0.67649466  0.88482947  0.94992077     0.92600
C97         C  0.74998648  0.81389053  0.89851860     0.84800
C98         C  0.67063834  0.97097138  0.88132434     0.91000
O99         O  0.53565192  0.14436297  0.89220877    -0.72700
O100        O  0.41399501  0.20360699  0.90551385    -0.73700
O101        O  0.46969336  0.14494079  0.94328493    -0.62300
O102        O  0.47994489  0.20389035  0.85483125    -0.70700
O103        O  0.44547969  0.14515396  0.83215520    -0.70300
O104        O  0.43568183  0.08586175  0.92091584    -0.61500
O105        O  0.38063094  0.14395887  0.88327171    -0.74000
O106        O  0.49990480  0.08656087  0.86930127    -0.72800
Cu107      Cu  0.47609241  0.17628747  0.89980124     1.04600
Cu108      Cu  0.43935065  0.11336820  0.87565726     1.04300
C109        C  0.53652380  0.10579730  0.87820208     0.93500
C110        C  0.37810571  0.18288009  0.89635547     0.92600
C111        C  0.45084825  0.10632781  0.94629996     0.84800
C112        C  0.46403246  0.18401153  0.82950639     0.91000
O113        O  0.36024048  0.45519215  0.39152693    -0.72700
O114        O  0.30707588  0.33035598  0.40194134    -0.73700
O115        O  0.35856852  0.38919722  0.44199778    -0.62300
O116        O  0.30667772  0.39651001  0.35113621    -0.70700
O117        O  0.36878483  0.36595076  0.33061237    -0.70300
O118        O  0.42140538  0.35964819  0.42199318    -0.61500
O119        O  0.37019679  0.30145301  0.38197788    -0.74000
O120        O  0.42157945  0.42340872  0.37043174    -0.72800
Cu121      Cu  0.33084626  0.39395355  0.39729912     1.04600
Cu122      Cu  0.39758731  0.36171175  0.37552121     1.04300
C123        C  0.40017000  0.45836258  0.37961136     0.93500
C124        C  0.33074144  0.29603663  0.39386665     0.92600
C125        C  0.39795944  0.37289391  0.44657341     0.84800
C126        C  0.32904446  0.38190936  0.32649362     0.91000
O127        O  0.58838826  0.69437428  0.35540515    -0.72700
O128        O  0.59773736  0.63716141  0.44462953    -0.73700
O129        O  0.65267592  0.69569482  0.40689752    -0.62300
O130        O  0.53228428  0.63486825  0.39328484    -0.70700
O131        O  0.56825653  0.57695930  0.37095473    -0.70300
O132        O  0.68715061  0.63642556  0.38567491    -0.61500
O133        O  0.63253820  0.57819143  0.42324174    -0.74000
O134        O  0.62358681  0.63573867  0.33363723    -0.72800
Cu135      Cu  0.59135013  0.66751575  0.40077110     1.04600
Cu136      Cu  0.62885060  0.60472952  0.37756924     1.04300
C137        C  0.60557588  0.67463944  0.33050009     0.93500
C138        C  0.61803407  0.59951272  0.44839710     0.92600
C139        C  0.68902332  0.67543430  0.39879397     0.84800
C140        C  0.53160167  0.59604575  0.37974688     0.91000
O141        O  0.00400890  0.57448293  0.15902278    -0.72700
O142        O  0.88432382  0.63492815  0.14829336    -0.73700
O143        O  0.93974629  0.58184473  0.10717197    -0.62300
O144        O  0.94833764  0.62869625  0.20003660    -0.70700
O145        O  0.98356765  0.68969816  0.18113388    -0.70300
O146        O  0.97388158  0.64355599  0.08884753    -0.61500
O147        O  0.91894524  0.69683482  0.13054649    -0.74000
O148        O  0.03959259  0.63488918  0.13949446    -0.72800
Cu149      Cu  0.94314001  0.60276339  0.15431530     1.04600
Cu150      Cu  0.98043715  0.66830386  0.13443093     1.04300
C151        C  0.04049798  0.59451469  0.15060891     0.93500
C152        C  0.88263751  0.67559528  0.13799624     0.92600
C153        C  0.95439929  0.60588453  0.08318122     0.84800
C154        C  0.96605310  0.66747917  0.20494421     0.91000
O155        O  0.27468545  0.33846457  0.11787082    -0.72700
O156        O  0.21779822  0.46123503  0.13194423    -0.73700
O157        O  0.27367251  0.40185501  0.17061966    -0.62300
O158        O  0.22096974  0.39808878  0.07973724    -0.70700
O159        O  0.15915220  0.36561647  0.09959820    -0.70300
O160        O  0.21284199  0.36745144  0.19047592    -0.61500
O161        O  0.15791833  0.42632620  0.15314620    -0.74000
O162        O  0.21228207  0.30646798  0.13699476    -0.72800
Cu163      Cu  0.24904938  0.40122071  0.12443335     1.04600
Cu164      Cu  0.18350050  0.36550686  0.14577822     1.04300
C165        C  0.25177196  0.30291035  0.12472194     0.93500
C166        C  0.17813886  0.46250603  0.14452896     0.92600
C167        C  0.25216022  0.38450736  0.19486291     0.84800
C168        C  0.18201851  0.38064876  0.07514452     0.91000
O169        O  0.30539603  0.08715802  0.11982670    -0.72700
O170        O  0.36858975  0.96755406  0.13449429    -0.76900
O171        O  0.30847731  0.02332731  0.17208510    -0.62300
O172        O  0.36311053  0.03129741  0.08214280    -0.70700
O173        O  0.42254054  0.06724961  0.10239391    -0.70300
O174        O  0.36727803  0.06000291  0.19293849    -0.61500
O175        O  0.42621976  0.00571988  0.15566826    -0.74000
O176        O  0.36561279  0.12225267  0.14001591    -0.72800
Cu177      Cu  0.33426996  0.02588051  0.12645805     1.04600
Cu178      Cu  0.39742431  0.06485702  0.14849438     1.04300
C179        C  0.32619514  0.12362250  0.12749020     0.93500
C180        C  0.40809231  0.96841334  0.14736892     0.92600
C181        C  0.32877802  0.04083217  0.19668615     0.84800
C182        C  0.40083924  0.05140465  0.07772240     0.91000
O183        O  0.60227531  0.73886079  0.17645808    -0.72700
O184        O  0.61415571  0.79523228  0.08770031    -0.73700
O185        O  0.66934059  0.73728757  0.12651216    -0.62300
O186        O  0.54767316  0.79791230  0.13809403    -0.70700
O187        O  0.58330512  0.85603764  0.16059371    -0.70300
O188        O  0.70240490  0.79742694  0.14794350    -0.61500
O189        O  0.64804722  0.85514372  0.10879971    -0.74000
O190        O  0.63717000  0.79736297  0.19889231    -0.72800
Cu191      Cu  0.60713367  0.76529191  0.13139301     1.04600
Cu192      Cu  0.64382424  0.82856342  0.15480552     1.04300
C193        C  0.61823709  0.75863786  0.20176671     0.93500
C194        C  0.63303390  0.83367353  0.08377566     0.92600
C195        C  0.70523847  0.75797075  0.13572293     0.84800
C196        C  0.54671607  0.83683699  0.15158483     0.91000
O197        O  0.86850669  0.79481993  0.38686274    -0.72700
O198        O  0.98682450  0.85357551  0.37103010    -0.73700
O199        O  0.93173977  0.79406712  0.33467170    -0.62300
O200        O  0.92423299  0.85309540  0.42363083    -0.70700
O201        O  0.95909771  0.79420827  0.44534896    -0.70300
O202        O  0.96762082  0.73623823  0.35694829    -0.61500
O203        O  0.02350602  0.79633643  0.39377271    -0.74000
O204        O  0.90285883  0.73538029  0.40843238    -0.72800
Cu205      Cu  0.92671695  0.82590141  0.37826564     1.04600
Cu206      Cu  0.96453678  0.76346070  0.40190986     1.04300
C207        C  0.86662106  0.75572697  0.39989342     0.93500
C208        C  0.02371662  0.83515509  0.37999137     0.92600
C209        C  0.95084923  0.75567465  0.33169320     0.84800
C210        C  0.94021847  0.83250315  0.44874997     0.91000
O211        O  0.20186980  0.96620451  0.38719880    -0.72700
O212        O  0.26974273  0.08280675  0.40138948    -0.73700
O213        O  0.21159273  0.02874050  0.44004682    -0.62300
O214        O  0.26153206  0.02119044  0.34852432    -0.70700
O215        O  0.20329891  0.05994196  0.32930192    -0.70300
O216        O  0.15251729  0.06659273  0.42153740    -0.61500
O217        O  0.20990325  0.12020797  0.38306550    -0.74000
O218        O  0.14429696  0.00572295  0.36764113    -0.72800
Cu219      Cu  0.23818896  0.02316206  0.39486838     1.04600
Cu220      Cu  0.17541757  0.06420347  0.37467064     1.04300
C221        C  0.16203185  0.96793001  0.37504596     0.93500
C222        C  0.24969546  0.11994461  0.39504369     0.92600
C223        C  0.17519197  0.05041483  0.44564316     0.84800
C224        C  0.24108840  0.04015549  0.32451897     0.91000
C225        C  0.06714214  0.89161072  0.34856026    -0.12000
C226        C  0.06597985  0.86072619  0.37470796     0.05000
C227        C  0.10230143  0.85973153  0.39718839    -0.07300
C228        C  0.13640170  0.89268912  0.39515645    -0.08100
C229        C  0.13445805  0.92674106  0.37110938    -0.02600
C230        C  0.10083544  0.92441065  0.34659037     0.04200
N231        N  0.09978380  0.95576959  0.31985760     0.66700
H232        H  0.04039473  0.89178425  0.33034055     0.15600
H233        H  0.16210205  0.89392465  0.41411548     0.15300
N234        N  0.10239815  0.82900726  0.42429808     0.74400
O235        O  0.11813906  0.94505676  0.29299157    -0.39000
O236        O  0.07180065  0.98777639  0.32035350    -0.39000
O237        O  0.12933217  0.79613046  0.42438335    -0.39700
O238        O  0.08095986  0.83868250  0.45015458    -0.39800
C239        C  0.30990276  0.03667970  0.28927431    -0.12000
C240        C  0.26256332  0.04010362  0.29141450     0.05000
C241        C  0.23737269  0.04388467  0.26201765    -0.07300
C242        C  0.25950634  0.04304241  0.23148810    -0.08100
C243        C  0.30678563  0.03969693  0.22946226    -0.02600
C244        C  0.33205847  0.03668225  0.25877559     0.04200
N245        N  0.38014388  0.03213380  0.25798902     0.66700
H246        H  0.33001936  0.03408850  0.31145665     0.15600
H247        H  0.23956698  0.04575771  0.20922984     0.15300
N248        N  0.18926544  0.04765543  0.26257415     0.74400
O249        O  0.40500409  0.06346243  0.26873695    -0.39000
O250        O  0.39763735  0.99531400  0.24925504    -0.39000
O251        O  0.17126744  0.08581756  0.25877556    -0.39700
O252        O  0.16535985  0.01261660  0.25963024    -0.39800
C253        C  0.46545473  0.92650254  0.17878070    -0.12000
C254        C  0.43499093  0.92709415  0.15235733     0.05000
C255        C  0.43617690  0.89181597  0.12915534    -0.07300
C256        C  0.47047172  0.85921705  0.13105648    -0.08100
C257        C  0.50382572  0.86172061  0.15562171    -0.02600
C258        C  0.49947758  0.89419936  0.18074799     0.04200
N259        N  0.53066840  0.89608846  0.20765223     0.66700
H260        H  0.46411338  0.95262637  0.19735681     0.15600
H261        H  0.47338162  0.83452575  0.11158109     0.15300
N262        N  0.40637474  0.89160755  0.10150334     0.74400
O263        O  0.55375258  0.93131877  0.21255918    -0.39000
O264        O  0.53204692  0.86422136  0.22827505    -0.39000
O265        O  0.41450832  0.91684317  0.07713140    -0.39700
O266        O  0.37556476  0.86219612  0.09958702    -0.39800
C267        C  0.24177243  0.21945549  0.12508503    -0.12000
C268        C  0.27044248  0.25689043  0.11969111     0.05000
C269        C  0.31655550  0.24903688  0.11274552    -0.07300
C270        C  0.33358657  0.20509323  0.11473489    -0.08100
C271        C  0.30537616  0.16826827  0.12237771    -0.02600
C272        C  0.25874059  0.17548787  0.12658301     0.04200
N273        N  0.22872849  0.13924971  0.13502952     0.66700
H274        H  0.20613478  0.22436144  0.12989181     0.15600
H275        H  0.36927819  0.19971909  0.11034765     0.15300
N276        N  0.34670404  0.28500918  0.10400933     0.74400
O277        O  0.23349994  0.11866183  0.16203257    -0.39000
O278        O  0.19400655  0.13194304  0.11779081    -0.39000
O279        O  0.38241904  0.29122397  0.12038219    -0.39700
O280        O  0.34192049  0.30491481  0.07673548    -0.39800
C281        C  0.80047981  0.67238859  0.12501551    -0.12000
C282        C  0.83817579  0.69790389  0.13497220     0.05000
C283        C  0.83205891  0.74342560  0.14371272    -0.07300
C284        C  0.78873404  0.76215026  0.14299943    -0.08100
C285        C  0.75069445  0.73670788  0.13336491    -0.02600
C286        C  0.75714602  0.69142090  0.12373631     0.04200
N287        N  0.72019402  0.66398854  0.11303965     0.66700
H288        H  0.80467929  0.63743568  0.11813364     0.15600
H289        H  0.78499754  0.79686712  0.15057583     0.15300
N290        N  0.86880668  0.77038751  0.15554510     0.74400
O291        O  0.70855367  0.66458075  0.08317043    -0.39000
O292        O  0.70392385  0.63442329  0.13209228    -0.39000
O293        O  0.89663235  0.78714552  0.13533281    -0.39700
O294        O  0.86772226  0.78521649  0.18461338    -0.39800
C295        C  0.94780985  0.73350885  0.23919393    -0.12000
C296        C  0.96316772  0.68886033  0.23767517     0.05000
C297        C  0.97416758  0.66618679  0.26707359    -0.07300
C298        C  0.97033097  0.68871412  0.29728979    -0.08100
C299        C  0.95400505  0.73326198  0.29900061    -0.02600
C300        C  0.94207029  0.75536919  0.26940238     0.04200
N301        N  0.92336252  0.79974455  0.26934323     0.66700
H302        H  0.93895689  0.75100925  0.21692143     0.15600
H303        H  0.97962370  0.67094449  0.31944621     0.15300
N304        N  0.99102744  0.62104839  0.26672798     0.74400
O305        O  0.94672690  0.83255598  0.25904363    -0.39000
O306        O  0.88151915  0.80480531  0.27409972    -0.39000
O307        O  0.02988225  0.61310131  0.27809194    -0.39700
O308        O  0.96414387  0.58863348  0.26177780    -0.39800
C309        C  0.13028159  0.51231507  0.17805334    -0.12000
C310        C  0.15336486  0.50517032  0.14840059     0.05000
C311        C  0.14391988  0.53301962  0.12111521    -0.07300
C312        C  0.10924397  0.56509127  0.12320456    -0.08100
C313        C  0.08330390  0.56918440  0.15199690    -0.02600
C314        C  0.09521407  0.54369887  0.18002961     0.04200
N315        N  0.07126468  0.54821155  0.21042794     0.66700
H316        H  0.13730199  0.49105786  0.19915756     0.15600
H317        H  0.10010373  0.58410261  0.10141566     0.15300
N318        N  0.16463971  0.52479920  0.08995125     0.74400
O319        O  0.03359348  0.52870546  0.21406372    -0.39000
O320        O  0.09223470  0.56191531  0.23553335    -0.39000
O321        O  0.14325807  0.50331534  0.06814337    -0.39700
O322        O  0.20174908  0.54355605  0.08284335    -0.39800
C323        C  0.77239822  0.66893477  0.40280536    -0.12000
C324        C  0.73390925  0.69665017  0.40399633     0.05000
C325        C  0.73984054  0.74376547  0.40751806    -0.07300
C326        C  0.78358310  0.76201789  0.40694401    -0.08100
C327        C  0.82182571  0.73432983  0.40420633    -0.02600
C328        C  0.81598478  0.68724220  0.40322212     0.04200
N329        N  0.85377078  0.65762732  0.40047467     0.66700
H330        H  0.76877697  0.63272041  0.40073437     0.15600
H331        H  0.78765756  0.79823563  0.40856694     0.15300
N332        N  0.70226051  0.77377720  0.41088805     0.74400
O333        O  0.87112667  0.64087902  0.42607590    -0.39000
O334        O  0.86621053  0.64399347  0.37252414    -0.39000
O335        O  0.67830234  0.77203010  0.43658376    -0.39700
O336        O  0.69945620  0.80791818  0.39239233    -0.39800
C337        C  0.60257788  0.67054674  0.26946099    -0.12000
C338        C  0.60577730  0.69708777  0.29787764     0.05000
C339        C  0.61304580  0.74400553  0.29446420    -0.07300
C340        C  0.61752421  0.76315720  0.26304206    -0.08100
C341        C  0.61444319  0.73663866  0.23456620    -0.02600
C342        C  0.60695583  0.68966076  0.23803770     0.04200
N343        N  0.60601720  0.66043290  0.21008674     0.66700
H344        H  0.59768508  0.63441428  0.27166445     0.15600
H345        H  0.62320239  0.79918247  0.26098442     0.15300
N346        N  0.61851953  0.77239265  0.32258279     0.74400
O347        O  0.64188141  0.65322171  0.19413325    -0.39000
O348        O  0.57112792  0.63725972  0.20408040    -0.39000
O349        O  0.65587711  0.79200434  0.32730747    -0.39700
O350        O  0.58415266  0.78497743  0.33845932    -0.39800
C351        C  0.26740945  0.24431860  0.40850900    -0.12000
C352        C  0.31222948  0.24979182  0.39776038     0.05000
C353        C  0.33803963  0.21085173  0.39040843    -0.07300
C354        C  0.31789301  0.16818675  0.39187141    -0.08100
C355        C  0.27241274  0.16337767  0.40058166    -0.02600
C356        C  0.24754357  0.20152891  0.41043486     0.04200
N357        N  0.20228137  0.19716312  0.42277477     0.66700
H358        H  0.24750586  0.27335817  0.41536219     0.15600
H359        H  0.33725636  0.13900206  0.38447625     0.15300
N360        N  0.38428224  0.21384479  0.38036322     0.74400
O361        O  0.19375642  0.16988090  0.44589738    -0.39000
O362        O  0.17158744  0.22308904  0.41253069    -0.39000
O363        O  0.41522315  0.20561215  0.40085512    -0.39700
O364        O  0.39383463  0.21701715  0.35016744    -0.39800
C365        C  0.24407022  0.38336549  0.25591076    -0.12000
C366        C  0.27262669  0.38410252  0.22828452     0.05000
C367        C  0.31999922  0.38455963  0.23326108    -0.07300
C368        C  0.33749773  0.38441991  0.26537516    -0.08100
C369        C  0.30890177  0.38332566  0.29297795    -0.02600
C370        C  0.26161432  0.38296142  0.28793857     0.04200
N371        N  0.23081711  0.38047418  0.31500726     0.66700
H372        H  0.20770446  0.38299531  0.25268813     0.15600
H373        H  0.37384306  0.38449366  0.26870320     0.15300
N374        N  0.35089350  0.38310531  0.20612948     0.74400
O375        O  0.20895224  0.41501845  0.32343485    -0.39000
O376        O  0.22064813  0.34260360  0.32723250    -0.39000
O377        O  0.38233515  0.41186767  0.20400741    -0.39700
O378        O  0.35091602  0.34946326  0.18716905    -0.39800
C379        C  0.45893526  0.56737813  0.40220613    -0.12000
C380        C  0.48886026  0.57113566  0.37547904     0.05000
C381        C  0.48277024  0.54324065  0.34781262    -0.07300
C382        C  0.45039040  0.50898872  0.34879314    -0.08100
C383        C  0.42382416  0.50185565  0.37690413    -0.02600
C384        C  0.42688780  0.53229566  0.40350638     0.04200
N385        N  0.40222639  0.52486097  0.43345311     0.66700
H386        H  0.46391613  0.58832205  0.42370159     0.15600
H387        H  0.44761856  0.48620575  0.32808422     0.15300
N388        N  0.51098118  0.54777311  0.31929648     0.74400
O389        O  0.40661963  0.48817564  0.44894793    -0.39000
O390        O  0.38245599  0.55738577  0.44722241    -0.39000
O391        O  0.53092517  0.51380325  0.30766413    -0.39700
O392        O  0.51352367  0.58509062  0.30438212    -0.39800
C393        C  0.41003099  0.05402272  0.98413569    -0.12000
C394        C  0.44419696  0.08644192  0.97955361     0.05000
C395        C  0.46774805  0.10264728  0.00741079    -0.07300
C396        C  0.45442855  0.08903904  0.03900685    -0.08100
C397        C  0.41816111  0.05897014  0.04375525    -0.02600
C398        C  0.39684653  0.04024441  0.01571741     0.04200
N399        N  0.36046884  0.00862322  0.01869587     0.66700
H400        H  0.39172078  0.04081802  0.96316723     0.15600
H401        H  0.47193931  0.10324043  0.05998025     0.15300
N402        N  0.50490402  0.13339761  0.00416767     0.74400
O403        O  0.32018829  0.02222256  0.01669036    -0.39000
O404        O  0.36853907  0.96693439  0.01725146    -0.39000
O405        O  0.50353839  0.17135173  0.01809360    -0.39700
O406        O  0.54093617  0.12080409  0.99037678    -0.39800
C407        C  0.67059581  0.90449326  0.00967617    -0.12000
C408        C  0.65984969  0.87521449  0.98365668     0.05000
C409        C  0.63652825  0.83477888  0.99074033    -0.07300
C410        C  0.62629765  0.82340162  0.02327333    -0.08100
C411        C  0.63887333  0.85140239  0.04963552    -0.02600
C412        C  0.65973952  0.89330455  0.04240942     0.04200
N413        N  0.67020682  0.92481892  0.06784727     0.66700
H414        H  0.68785613  0.93605065  0.00461771     0.15600
H415        H  0.61014092  0.79114864  0.02784238     0.15300
N416        N  0.62675754  0.80268723  0.96553578     0.74400
O417        O  0.71077441  0.93113526  0.07629089    -0.39000
O418        O  0.63989069  0.95096511  0.07829609    -0.39000
O419        O  0.65565446  0.77311573  0.95836535    -0.39700
O420        O  0.58714672  0.79947726  0.95426665    -0.39800
C421        C  0.61535701  0.01545192  0.84974984    -0.12000
C422        C  0.64541211  0.01329936  0.87636960     0.05000
C423        C  0.64588005  0.04863027  0.89953569    -0.07300
C424        C  0.61259415  0.08222030  0.89800565    -0.08100
C425        C  0.57929752  0.08115218  0.87337819    -0.02600
C426        C  0.58294639  0.04942740  0.84765889     0.04200
N427        N  0.55274292  0.05028384  0.82001668     0.66700
H428        H  0.61606692  0.98957343  0.83098280     0.15600
H429        H  0.61044358  0.10666189  0.91770078     0.15300
N430        N  0.67667587  0.04827348  0.92659222     0.74400
O431        O  0.54571676  0.08675482  0.80478453    -0.39000
O432        O  0.53531031  0.01419670  0.80946144    -0.39000
O433        O  0.71123489  0.07333426  0.92595860    -0.39700
O434        O  0.66679958  0.02690728  0.95253562    -0.39800
C435        C  0.67211217  0.53919525  0.52144237    -0.12000
C436        C  0.65605758  0.56518511  0.54784081     0.05000
C437        C  0.62318388  0.59849060  0.54140712    -0.07300
C438        C  0.60939471  0.60705427  0.50906917    -0.08100
C439        C  0.62718549  0.58282275  0.48238895    -0.02600
C440        C  0.65761803  0.54723081  0.48905341     0.04200
N441        N  0.67539829  0.51986185  0.46324391     0.66700
H442        H  0.69664401  0.51285218  0.52584682     0.15600
H443        H  0.58573092  0.63422429  0.50484318     0.15300
N444        N  0.60576913  0.62636506  0.56703836     0.74400
O445        O  0.71598020  0.52471707  0.45427396    -0.39000
O446        O  0.65262357  0.48686819  0.45269735    -0.39000
O447        O  0.61882478  0.66678465  0.56920384    -0.39700
O448        O  0.57177090  0.61338785  0.58332574    -0.39800
C449        C  0.46458471  0.33384611  0.52154419    -0.12000
C450        C  0.43957402  0.35302879  0.54735139     0.05000
C451        C  0.40415442  0.38301587  0.53951978    -0.07300
C452        C  0.39217690  0.38998211  0.50651806    -0.08100
C453        C  0.41536360  0.36843112  0.48075780    -0.02600
C454        C  0.45299121  0.34127068  0.48860030     0.04200
N455        N  0.47824123  0.31865557  0.46365755     0.66700
H456        H  0.49233591  0.31127765  0.52693196     0.15600
H457        H  0.36391576  0.41189544  0.50113409     0.15300
N458        N  0.37849590  0.40496414  0.56462838     0.74400
O459        O  0.46496773  0.28081011  0.45324089    -0.39000
O460        O  0.51694437  0.33308305  0.45574000    -0.39000
O461        O  0.39598854  0.43712020  0.58049422    -0.39700
O462        O  0.33647061  0.39803677  0.56667930    -0.39800
C463        C  0.47153381  0.17869912  0.76880629    -0.12000
C464        C  0.46713007  0.20583452  0.79681084     0.05000
C465        C  0.46574139  0.25313705  0.79297232    -0.07300
C466        C  0.46704894  0.27219688  0.76139338    -0.08100
C467        C  0.47034775  0.24499873  0.73323758    -0.02600
C468        C  0.47382044  0.19773420  0.73730098     0.04200
N469        N  0.47854024  0.16832394  0.70972631     0.66700
H470        H  0.47347100  0.14239660  0.77135590     0.15600
H471        H  0.46467249  0.30847280  0.75892013     0.15300
N472        N  0.46082973  0.28222177  0.82073306     0.74400
O473        O  0.51750899  0.15743132  0.69999191    -0.39000
O474        O  0.44439313  0.14776675  0.69864759    -0.39000
O475        O  0.49330292  0.30717793  0.82945004    -0.39700
O476        O  0.42268175  0.28658466  0.83425210    -0.39800
C477        C  0.59176335  0.38755446  0.67734786    -0.12000
C478        C  0.58106638  0.36579576  0.64778330     0.05000
C479        C  0.60856885  0.37290726  0.61987617    -0.07300
C480        C  0.64408334  0.40441947  0.62130700    -0.08100
C481        C  0.65196972  0.42922457  0.65013886    -0.02600
C482        C  0.62719011  0.41876357  0.67879260     0.04200
N483        N  0.63636461  0.44131867  0.70912882     0.66700
H484        H  0.57124673  0.38172350  0.69906628     0.15600
H485        H  0.66233368  0.41280689  0.59897036     0.15300
N486        N  0.59712365  0.35309969  0.58893469     0.74400
O487        O  0.60844039  0.46936012  0.72043351    -0.39000
O488        O  0.66934525  0.42895771  0.72659939    -0.39000
O489        O  0.56592516  0.36991213  0.57169834    -0.39700
O490        O  0.62140910  0.32220407  0.57717525    -0.39800
C491        C  0.83639383  0.71997275  0.89857912    -0.12000
C492        C  0.80861109  0.68157149  0.90214206     0.05000
C493        C  0.76196103  0.68770244  0.90790714    -0.07300
C494        C  0.74380814  0.73121221  0.90753362    -0.08100
C495        C  0.77135012  0.76925463  0.90223811    -0.02600
C496        C  0.81828339  0.76343480  0.89859579     0.04200
N497        N  0.84756797  0.80095211  0.89234721     0.66700
H498        H  0.87245824  0.71636348  0.89461089     0.15600
H499        H  0.70764373  0.73514979  0.91076429     0.15300
N500        N  0.73223881  0.65026213  0.91307508     0.74400
O501        O  0.87412426  0.81458313  0.91450850    -0.39000
O502        O  0.85052820  0.81711576  0.86365880    -0.39000
O503        O  0.72031746  0.63986303  0.94194881    -0.39700
O504        O  0.71228384  0.63257469  0.88888075    -0.39800
C505        C  0.95317046  0.60206523  0.98926075    -0.12000
C506        C  0.91905087  0.56997912  0.98338290     0.05000
C507        C  0.89973316  0.54717918  0.01066782    -0.07300
C508        C  0.91355294  0.55775655  0.04268804    -0.08100
C509        C  0.94624417  0.59120290  0.04865472    -0.02600
C510        C  0.96686842  0.61280845  0.02135798     0.04200
N511        N  0.00132261  0.64622029  0.02569207     0.66700
H512        H  0.96866826  0.61996094  0.96883134     0.15600
H513        H  0.89709517  0.54069486  0.06310124     0.15300
N514        N  0.86513887  0.51391814  0.00651113     0.74400
O515        O  0.04065227  0.63451576  0.03405885    -0.39000
O516        O  0.99378938  0.68670437  0.01784234    -0.39000
O517        O  0.87576479  0.47294838  0.00372658    -0.39700
O518        O  0.82428848  0.52446438  0.01090336    -0.39800
C519        C  0.83944681  0.55263194  0.76792537    -0.12000
C520        C  0.81173565  0.54876763  0.79594199     0.05000
C521        C  0.76461019  0.54315457  0.79145595    -0.07300
C522        C  0.74625125  0.54292356  0.75971420    -0.08100
C523        C  0.77382586  0.54732968  0.73178973    -0.02600
C524        C  0.82103368  0.55194226  0.73606600     0.04200
N525        N  0.85051326  0.55825886  0.70848561     0.66700
H526        H  0.87563000  0.55690508  0.77072244     0.15600
H527        H  0.71001139  0.53902621  0.75692600     0.15300
N528        N  0.73455572  0.53877509  0.81883558     0.74400
O529        O  0.84862949  0.59423007  0.69186820    -0.39000
O530        O  0.88207999  0.53067091  0.70330038    -0.39000
O531        O  0.71149527  0.57222717  0.82786973    -0.39700
O532        O  0.72510489  0.50007586  0.82992306    -0.39800
C533        C  0.25109202  0.20010882  0.89877680    -0.12000
C534        C  0.24801304  0.24687868  0.89393179     0.05000
C535        C  0.28836488  0.27274884  0.89300730    -0.07300
C536        C  0.33033932  0.25147005  0.89571558    -0.08100
C537        C  0.33333596  0.20457485  0.89926479    -0.02600
C538        C  0.29310763  0.17881846  0.90170922     0.04200
N539        N  0.29431563  0.13114780  0.90757348     0.66700
H540        H  0.22062913  0.17972362  0.90012898     0.15600
H541        H  0.36085419  0.27171165  0.89376245     0.15300
N542        N  0.28753193  0.32063184  0.88899717     0.74400
O543        O  0.31517363  0.11575309  0.93223994    -0.39000
O544        O  0.27084253  0.10482906  0.89012818    -0.39000
O545        O  0.28561704  0.34567657  0.91400402    -0.39700
O546        O  0.29544536  0.33779856  0.86111675    -0.39800
C547        C  0.16602571  0.38965071  0.98219855    -0.12000
C548        C  0.13669009  0.35314245  0.97642117     0.05000
C549        C  0.11875852  0.32944722  0.00381322    -0.07300
C550        C  0.13247598  0.34071166  0.03563632    -0.08100
C551        C  0.16430643  0.37500121  0.04125920    -0.02600
C552        C  0.18033086  0.40048523  0.01411235     0.04200
N553        N  0.21171005  0.43687189  0.01820056     0.66700
H554        H  0.17996411  0.40862181  0.96169421     0.15600
H555        H  0.11941288  0.32090435  0.05603491     0.15300
N556        N  0.08789262  0.29263089  0.99991413     0.74400
O557        O  0.25338326  0.42839246  0.02033190    -0.39000
O558        O  0.19945131  0.47647647  0.01125008    -0.39000
O559        O  0.10147453  0.25279604  0.00437827    -0.39700
O560        O  0.04602917  0.30023845  0.99831762    -0.39800
C561        C  0.99537459  0.40005429  0.84632432    -0.12000
C562        C  0.00109436  0.37076822  0.87310733     0.05000
C563        C  0.96968026  0.37181423  0.89927250    -0.07300
C564        C  0.93549414  0.40458014  0.89942384    -0.08100
C565        C  0.93282819  0.43667772  0.87406364    -0.02600
C566        C  0.96138913  0.43258348  0.84641072     0.04200
N567        N  0.95750598  0.46268671  0.81891501     0.66700
H568        H  0.01868290  0.39887387  0.82575633     0.15600
H569        H  0.91413365  0.40779628  0.92095410     0.15300
N570        N  0.97591293  0.34443571  0.92788081     0.74400
O571        O  0.99161473  0.48436388  0.80878782    -0.39000
O572        O  0.92061717  0.46554023  0.80346516    -0.39000
O573        O  0.00631445  0.35471968  0.94831811    -0.39700
O574        O  0.94660359  0.31518210  0.93548302    -0.39800
C575        C  0.24945288  0.24751251  0.62920411    -0.12000
C576        C  0.24598060  0.20040197  0.62800665     0.05000
C577        C  0.28600711  0.17449342  0.62881247    -0.07300
C578        C  0.32816055  0.19591453  0.63121510    -0.08100
C579        C  0.33164421  0.24304716  0.63333529    -0.02600
C580        C  0.29149012  0.26895824  0.63243101     0.04200
N581        N  0.29239303  0.31702869  0.63516488     0.66700
H582        H  0.21915433  0.26792373  0.62920650     0.15600
H583        H  0.35834287  0.17535659  0.63182857     0.15300
N584        N  0.28455246  0.12635578  0.62707052     0.74400
O585        O  0.27878765  0.34078969  0.61137377    -0.39000
O586        O  0.29607931  0.33474377  0.66324843    -0.39000
O587        O  0.27674836  0.10725257  0.59994187    -0.39700
O588        O  0.29565882  0.10300251  0.65176792    -0.39800
C589        C  0.11980637  0.08228916  0.48590207    -0.12000
C590        C  0.16041055  0.05898091  0.48022214     0.05000
C591        C  0.18760150  0.04749594  0.50771682    -0.07300
C592        C  0.17441020  0.06017845  0.53950932    -0.08100
C593        C  0.13509593  0.08542429  0.54482774    -0.02600
C594        C  0.10714001  0.09561845  0.51769456     0.04200
N595        N  0.06568176  0.11947159  0.52200675     0.66700
H596        H  0.09807945  0.09124073  0.46548130     0.15600
H597        H  0.19665996  0.05257723  0.55994232     0.15300
N598        N  0.23033595  0.02582042  0.50380062     0.74400
O599        O  0.06255004  0.15985059  0.51242981    -0.39000
O600        O  0.03068680  0.09848291  0.53122641    -0.39000
O601        O  0.26518549  0.04928063  0.49810450    -0.39700
O602        O  0.23448302  0.98476487  0.51139297    -0.39800
C603        C  0.13042279  0.18363776  0.75479902    -0.12000
C604        C  0.11232784  0.20609709  0.72727588     0.05000
C605        C  0.09623745  0.25073680  0.73136238    -0.07300
C606        C  0.09929705  0.27189043  0.76215809    -0.08100
C607        C  0.11749164  0.24918452  0.78932241    -0.02600
C608        C  0.13341704  0.20481062  0.78547092     0.04200
N609        N  0.15499772  0.18170063  0.81212674     0.66700
H610        H  0.14356884  0.14982014  0.75243062     0.15600
H611        H  0.08652430  0.30579687  0.76501562     0.15300
N612        N  0.07624564  0.27505104  0.70471959     0.74400
O613        O  0.13996482  0.14408070  0.82185819    -0.39000
O614        O  0.19187996  0.19646938  0.82349301    -0.39000
O615        O  0.03414337  0.27256038  0.70002974    -0.39700
O616        O  0.09935781  0.30376580  0.68900234    -0.39800
C617        C  0.76442703  0.76121629  0.62697975    -0.12000
C618        C  0.81148199  0.76570534  0.62937203     0.05000
C619        C  0.83829026  0.72624329  0.63013531    -0.07300
C620        C  0.81746691  0.68371630  0.63035535    -0.08100
C621        C  0.77022165  0.67932066  0.62959621    -0.02600
C622        C  0.74358515  0.71879245  0.62731166     0.04200
N623        N  0.69534382  0.71684043  0.62507783     0.66700
H624        H  0.74327461  0.79093366  0.62609480     0.15600
H625        H  0.83849761  0.65393513  0.63161952     0.15300
N626        N  0.88664448  0.72858119  0.63037874     0.74400
O627        O  0.67237873  0.71077744  0.65091463    -0.39000
O628        O  0.67625574  0.73326724  0.60002670    -0.39000
O629        O  0.90856409  0.71061807  0.65357429    -0.39700
O630        O  0.90751488  0.74367404  0.60555073    -0.39800
C631        C  0.90206057  0.88532013  0.48726512    -0.12000
C632        C  0.93490544  0.85198963  0.48214392     0.05000
C633        C  0.95971136  0.83599139  0.50953425    -0.07300
C634        C  0.94922022  0.85109452  0.54117567    -0.08100
C635        C  0.91376762  0.88147724  0.54658847    -0.02600
C636        C  0.89121060  0.90003453  0.51901370     0.04200
N637        N  0.85634482  0.93288705  0.52268169     0.66700
H638        H  0.88311682  0.89874194  0.46665430     0.15600
H639        H  0.96747319  0.83677797  0.56179790     0.15300
N640        N  0.99488786  0.80344139  0.50603241     0.74400
O641        O  0.86626681  0.97422035  0.52078695    -0.39000
O642        O  0.81549446  0.92085926  0.52047268    -0.39000
O643        O  0.03536592  0.81549219  0.51049107    -0.39700
O644        O  0.98503007  0.76202017  0.50711220    -0.39800
C645        C  0.76456207  0.90106305  0.73802965    -0.12000
C646        C  0.81161287  0.89520802  0.73531733     0.05000
C647        C  0.83725579  0.89035599  0.76448864    -0.07300
C648        C  0.81591815  0.89321882  0.79527407    -0.08100
C649        C  0.76893309  0.89897843  0.79780408    -0.02600
C650        C  0.74315424  0.90267830  0.76875959     0.04200
N651        N  0.69532796  0.90944403  0.77001731     0.66700
H652        H  0.74403696  0.90454101  0.71612781     0.15600
H653        H  0.83606059  0.88934463  0.81732746     0.15300
N654        N  0.88479226  0.88192633  0.76345634     0.74400
O655        O  0.67969949  0.94632708  0.78034491    -0.39000
O656        O  0.66892604  0.88042620  0.75785361    -0.39000
O657        O  0.91213249  0.91189422  0.77302365    -0.39700
O658        O  0.89872037  0.84222887  0.75901864    -0.39800
C659        C  0.95567089  0.02267429  0.67867942    -0.12000
C660        C  0.92778603  0.01618927  0.65124972     0.05000
C661        C  0.93011993  0.04704576  0.62476793    -0.07300
C662        C  0.96353440  0.08089202  0.62475566    -0.08100
C663        C  0.99483037  0.08373618  0.65063546    -0.02600
C664        C  0.98871176  0.05639080  0.67878000     0.04200
N665        N  0.01763646  0.06086554  0.70686503     0.66700
H666        H  0.95330456  0.99987352  0.69950809     0.15600
H667        H  0.96808612  0.10152923  0.60295272     0.15300
N668        N  0.90356579  0.04044075  0.59580459     0.74400
O669        O  0.02105902  0.09833078  0.72132719    -0.39000
O670        O  0.03787724  0.02688910  0.71833257    -0.39000
O671        O  0.87594677  0.07034175  0.58679625    -0.39700
O672        O  0.91288552  0.00844333  0.57660263    -0.39800
loop_ 
_geom_bond_atom_site_label_1 
_geom_bond_atom_site_label_2 
_geom_bond_distance 
_geom_bond_site_symmetry_2 
_ccdc_geom_bond_type 
O1           Cu9   1.994       .  S
O1           C11   1.275       .  A
O2           Cu9   2.006       .  S
O2           C12   1.278       .  A
O3           Cu9   2.027       .  S
O3           C13   1.279       .  A
O4           Cu9   2.022       .  S
O4           C14   1.281       .  A
O5          Cu10   1.987       .  S
O5           C14   1.274       .  A
O6          Cu10   1.982       .  S
O6           C13   1.275       .  A
O7          Cu10   2.017       .  S
O7           C12   1.279       .  A
O8          Cu10   2.015       .  S
O8           C11   1.281       .  A
Cu9         Cu10   2.369       .  S
C11         C635   1.485       .  S
C12         C646   1.490       .  S
C13         C660   1.474   1_565  S
C14         C618   1.484       .  S
O15         Cu23   2.028       .  S
O15          C25   1.279       .  A
O16         Cu23   2.028       .  S
O16          C26   1.282       .  A
O17         Cu23   2.011       .  S
O17          C27   1.278       .  A
O18         Cu23   2.010       .  S
O18          C28   1.277       .  A
O19         Cu24   2.013       .  S
O19          C28   1.280       .  A
O20         Cu24   2.020       .  S
O20          C27   1.280       .  A
O21         Cu24   1.986       .  S
O21          C26   1.274       .  A
O22         Cu24   1.985       .  S
O22          C25   1.276       .  A
Cu23        Cu24   2.369       .  S
C25         C663   1.476   1_455  S
C26         C576   1.483       .  S
C27         C593   1.485       .  S
C28         C604   1.492       .  S
O29         Cu37   2.023       .  S
O29          C39   1.279       .  A
O30         Cu37   2.023       .  S
O30          C40   1.281       .  A
O31         Cu37   1.990       .  S
O31          C41   1.275       .  A
O32         Cu37   1.984       .  S
O32          C42   1.275       .  A
O33         Cu38   2.028       .  S
O33          C42   1.280       .  A
O34         Cu38   2.021       .  S
O34          C41   1.281       .  A
O35         Cu38   1.987       .  S
O35          C40   1.274       .  A
O36         Cu38   1.999       .  S
O36          C39   1.276       .  A
Cu37        Cu38   2.370       .  S
C39         C607   1.475       .  S
C40         C548   1.487       .  S
C41         C534   1.485       .  S
C42         C562   1.476       .  S
O43         Cu51   2.004       .  S
O43          C53   1.277       .  A
O44         Cu51   1.999       .  S
O44          C54   1.276       .  A
O45         Cu51   2.027       .  S
O45          C55   1.280       .  A
O46         Cu51   2.030       .  S
O46          C56   1.280       .  A
O47         Cu52   1.981       .  S
O47          C56   1.275       .  A
O48         Cu52   1.983       .  S
O48          C55   1.275       .  A
O49         Cu52   2.026       .  S
O49          C54   1.281       .  A
O50         Cu52   2.023       .  S
O50          C53   1.280       .  A
Cu51        Cu52   2.368       .  S
C53         C520   1.489       .  S
C54         C506   1.491       .  S
C55         C492   1.485       .  S
C56         C565   1.475       .  S
O57         Cu65   2.022       .  S
O57          C67   1.279       .  A
O58         Cu65   2.025       .  S
O58          C68   1.281       .  A
O59         Cu65   1.993       .  S
O59          C69   1.277       .  A
O60         Cu65   2.000       .  S
O60          C70   1.276       .  A
O61         Cu66   2.015       .  S
O61          C70   1.280       .  A
O62         Cu66   2.019       .  S
O62          C69   1.279       .  A
O63         Cu66   1.993       .  S
O63          C68   1.274       .  A
O64         Cu66   1.990       .  S
O64          C67   1.275       .  A
Cu65        Cu66   2.369       .  S
C67         C478   1.471       .  S
C68         C579   1.487       .  S
C69         C450   1.485       .  S
C70         C467   1.485       .  S
O71         Cu79   2.020       .  S
O71          C81   1.279       .  A
O72         Cu79   2.015       .  S
O72          C82   1.279       .  A
O73         Cu79   2.024       .  S
O73          C83   1.281       .  A
O74         Cu79   2.029       .  S
O74          C84   1.279       .  A
O75         Cu80   1.986       .  S
O75          C84   1.275       .  A
O76         Cu80   1.988       .  S
O76          C83   1.274       .  A
O77         Cu80   2.010       .  S
O77          C82   1.278       .  A
O78         Cu80   2.005       .  S
O78          C81   1.278       .  A
Cu79        Cu80   2.370       .  S
C81         C523   1.484       .  S
C82         C436   1.488       .  S
C83         C621   1.483       .  S
C84         C481   1.473       .  S
O85         Cu93   2.013       .  S
O85          C95   1.278       .  A
O86         Cu93   2.011       .  S
O86          C96   1.278       .  A
O87         Cu93   2.020       .  S
O87          C97   1.280       .  A
O88         Cu93   2.027       .  S
O88          C98   1.279       .  A
O89         Cu94   1.981       .  S
O89          C98   1.275       .  A
O90         Cu94   1.984       .  S
O90          C97   1.274       .  A
O91         Cu94   2.010       .  S
O91          C96   1.279       .  A
O92         Cu94   2.011       .  S
O92          C95   1.279       .  A
Cu93        Cu94   2.372       .  S
C95         C649   1.482       .  S
C96         C408   1.483       .  S
C97         C495   1.477       .  S
C98         C422   1.476   1_565  S
O99        Cu107   2.027       .  S
O99         C109   1.279       .  A
O100       Cu107   2.024       .  S
O100        C110   1.281       .  A
O101       Cu107   2.003       .  S
O101        C111   1.277       .  A
O102       Cu107   2.003       .  S
O102        C112   1.277       .  A
O103       Cu108   2.009       .  S
O103        C112   1.279       .  A
O104       Cu108   2.012       .  S
O104        C111   1.279       .  A
O105       Cu108   1.987       .  S
O105        C110   1.275       .  A
O106       Cu108   1.980       .  S
O106        C109   1.275       .  A
Cu107      Cu108   2.371       .  S
C109        C425   1.477       .  S
C110        C537   1.479       .  S
C111        C394   1.485       .  S
C112        C464   1.479       .  S
O113       Cu121   2.023       .  S
O113        C123   1.279       .  A
O114       Cu121   2.019       .  S
O114        C124   1.281       .  A
O115       Cu121   1.998       .  S
O115        C125   1.277       .  A
O116       Cu121   2.009       .  S
O116        C126   1.277       .  A
O117       Cu122   2.018       .  S
O117        C126   1.280       .  A
O118       Cu122   2.017       .  S
O118        C125   1.279       .  A
O119       Cu122   1.976       .  S
O119        C124   1.272       .  A
O120       Cu122   1.970       .  S
O120        C123   1.274       .  A
Cu121      Cu122   2.369       .  S
C123        C383   1.469       .  S
C124        C352   1.483       .  S
C125        C453   1.487       .  S
C126        C369   1.487       .  S
O127       Cu135   2.008       .  S
O127        C137   1.277       .  A
O128       Cu135   2.004       .  S
O128        C138   1.279       .  A
O129       Cu135   2.010       .  S
O129        C139   1.277       .  A
O130       Cu135   2.018       .  S
O130        C140   1.278       .  A
O131       Cu136   1.988       .  S
O131        C140   1.276       .  A
O132       Cu136   1.989       .  S
O132        C139   1.276       .  A
O133       Cu136   2.017       .  S
O133        C138   1.278       .  A
O134       Cu136   2.012       .  S
O134        C137   1.279       .  A
Cu135      Cu136   2.369       .  S
C137        C338   1.482       .  S
C138        C439   1.491       .  S
C139        C324   1.483       .  S
C140        C380   1.472       .  S
O141       Cu149   1.998   1_455  S
O141        C151   1.276       .  A
O142       Cu149   2.002       .  S
O142        C152   1.277       .  A
O143       Cu149   2.018       .  S
O143        C153   1.280       .  A
O144       Cu149   2.019       .  S
O144        C154   1.278       .  A
O145       Cu150   2.005       .  S
O145        C154   1.277       .  A
O146       Cu150   2.004       .  S
O146        C153   1.277       .  A
O147       Cu150   2.015       .  S
O147        C152   1.279       .  A
O148       Cu150   2.025   1_455  S
O148        C151   1.279       .  A
Cu149      Cu150   2.371       .  S
C151        C313   1.476       .  S
C152        C282   1.480       .  S
C153        C509   1.490       .  S
C154        C296   1.478       .  S
O155       Cu163   2.031       .  S
O155        C165   1.281       .  A
O156       Cu163   2.033       .  S
O156        C166   1.280       .  A
O157       Cu163   2.014       .  S
O157        C167   1.278       .  A
O158       Cu163   2.000       .  S
O158        C168   1.275       .  A
O159       Cu164   2.010       .  S
O159        C168   1.280       .  A
O160       Cu164   2.014       .  S
O160        C167   1.279       .  A
O161       Cu164   1.982       .  S
O161        C166   1.274       .  A
O162       Cu164   1.983       .  S
O162        C165   1.275       .  A
Cu163      Cu164   2.368       .  S
C165        C268   1.489       .  S
C166        C310   1.473       .  S
C167        C366   1.487       .  S
C168        C551   1.483       .  S
O169       Cu177   2.028       .  S
O169        C179   1.281       .  A
O170       Cu177   2.035   1_565  S
O170        C180   1.281       .  A
O171       Cu177   2.005       .  S
O171        C181   1.277       .  A
O172       Cu177   1.998       .  S
O172        C182   1.276       .  A
O173       Cu178   2.016       .  S
O173        C182   1.280       .  A
O174       Cu178   2.018       .  S
O174        C181   1.280       .  A
O175       Cu178   1.974       .  S
O175        C180   1.274   1_545  A
O176       Cu178   1.978       .  S
O176        C179   1.273       .  A
Cu177      Cu178   2.370       .  S
C179        C271   1.477       .  S
C180        C254   1.477       .  S
C181        C243   1.482       .  S
C182        C397   1.488       .  S
O183       Cu191   1.995       .  S
O183        C193   1.275       .  A
O184       Cu191   1.993       .  S
O184        C194   1.277       .  A
O185       Cu191   2.032       .  S
O185        C195   1.281       .  A
O186       Cu191   2.029       .  S
O186        C196   1.280       .  A
O187       Cu192   1.984       .  S
O187        C196   1.275       .  A
O188       Cu192   1.987       .  S
O188        C195   1.276       .  A
O189       Cu192   2.030       .  S
O189        C194   1.280       .  A
O190       Cu192   2.023       .  S
O190        C193   1.281       .  A
Cu191      Cu192   2.366       .  S
C193        C341   1.486       .  S
C194        C411   1.492       .  S
C195        C285   1.491       .  S
C196        C257   1.480       .  S
O197       Cu205   1.980       .  S
O197        C207   1.274       .  A
O198       Cu205   1.977       .  S
O198        C208   1.275   1_655  A
O199       Cu205   2.015       .  S
O199        C209   1.279       .  A
O200       Cu205   2.016       .  S
O200        C210   1.280       .  A
O201       Cu206   1.996       .  S
O201        C210   1.275       .  A
O202       Cu206   2.002       .  S
O202        C209   1.277       .  A
O203       Cu206   2.021   1_455  S
O203        C208   1.279       .  A
O204       Cu206   2.019       .  S
O204        C207   1.280       .  A
Cu205      Cu206   2.369       .  S
C207        C327   1.477       .  S
C208        C226   1.475       .  S
C209        C299   1.490       .  S
C210        C632   1.485       .  S
O211       Cu219   2.023   1_565  S
O211        C221   1.279       .  A
O212       Cu219   2.015       .  S
O212        C222   1.279       .  A
O213       Cu219   2.004       .  S
O213        C223   1.277       .  A
O214       Cu219   2.006       .  S
O214        C224   1.278       .  A
O215       Cu220   2.024       .  S
O215        C224   1.280       .  A
O216       Cu220   2.022       .  S
O216        C223   1.281       .  A
O217       Cu220   1.976       .  S
O217        C222   1.274       .  A
O218       Cu220   1.982       .  S
O218        C221   1.275   1_545  A
Cu219      Cu220   2.370       .  S
C221        C229   1.475       .  S
C222        C355   1.468       .  S
C223        C590   1.494       .  S
C224        C240   1.487       .  S
C225        C226   1.401       .  A
C225        C230   1.392       .  A
C225        H232   1.084       .  S
C226        C227   1.411       .  A
C227        C228   1.404       .  A
C227        N234   1.427       .  S
C228        C229   1.404       .  A
C228        H233   1.083       .  S
C229        C230   1.410       .  A
C230        N231   1.428       .  S
N231        O235   1.261       .  A
N231        O236   1.262       .  A
N234        O238   1.261       .  A
N234        O237   1.262       .  A
C239        C240   1.407       .  A
C239        C244   1.401       .  A
C239        H246   1.083       .  S
C240        C241   1.413       .  A
C241        C242   1.403       .  A
C241        N248   1.428       .  S
C242        C243   1.405       .  A
C242        H247   1.083       .  S
C243        C244   1.409       .  A
C244        N245   1.430       .  S
N245        O249   1.262       .  A
N245        O250   1.262   1_545  A
N248        O252   1.261       .  A
N248        O251   1.262       .  A
C253        C254   1.402       .  A
C253        C258   1.394       .  A
C253        H260   1.084       .  S
C254        C255   1.411       .  A
C255        C256   1.406       .  A
C255        N262   1.429       .  S
C256        C257   1.406       .  A
C256        H261   1.083       .  S
C257        C258   1.412       .  A
C258        N259   1.432       .  S
N259        O263   1.262       .  A
N259        O264   1.262       .  A
N262        O266   1.262       .  A
N262        O265   1.262       .  A
C267        C268   1.411       .  A
C267        C272   1.400       .  A
C267        H274   1.082       .  S
C268        C269   1.413       .  A
C269        C270   1.401       .  A
C269        N276   1.431       .  S
C270        C271   1.406       .  A
C270        H275   1.083       .  S
C271        C272   1.407       .  A
C272        N273   1.432       .  S
N273        O277   1.262       .  A
N273        O278   1.262       .  A
N276        O280   1.262       .  A
N276        O279   1.262       .  A
C281        C282   1.405       .  A
C281        C286   1.404       .  A
C281        H288   1.082       .  S
C282        C283   1.409       .  A
C283        C284   1.399       .  A
C283        N290   1.431       .  S
C284        C285   1.409       .  A
C284        H289   1.082       .  S
C285        C286   1.414       .  A
C286        N287   1.429       .  S
N287        O291   1.262       .  A
N287        O292   1.262       .  A
N290        O294   1.262       .  A
N290        O293   1.262       .  A
C295        C296   1.403       .  A
C295        C300   1.400       .  A
C295        H302   1.075       .  S
C296        C297   1.408       .  A
C297        C298   1.404       .  A
C297        N304   1.431       .  S
C298        C299   1.410       .  A
C298        H303   1.078       .  S
C299        C300   1.414       .  A
C300        N301   1.430       .  S
N301        O305   1.262       .  A
N301        O306   1.262       .  A
N304        O308   1.262       .  A
N304        O307   1.262   1_655  A
C309        C310   1.402       .  A
C309        C314   1.399       .  A
C309        H316   1.083       .  S
C310        C311   1.409       .  A
C311        C312   1.404       .  A
C311        N318   1.428       .  S
C312        C313   1.404       .  A
C312        H317   1.083       .  S
C313        C314   1.411       .  A
C314        N315   1.430       .  S
N315        O319   1.262       .  A
N315        O320   1.262       .  A
N318        O322   1.262       .  A
N318        O321   1.262       .  A
C323        C324   1.408       .  A
C323        C328   1.397       .  A
C323        H330   1.082       .  S
C324        C325   1.415       .  A
C325        C326   1.401       .  A
C325        N332   1.434       .  S
C326        C327   1.405       .  A
C326        H331   1.083       .  S
C327        C328   1.407       .  A
C328        N329   1.429       .  S
N329        O333   1.262       .  A
N329        O334   1.262       .  A
N332        O336   1.262       .  A
N332        O335   1.262       .  A
C337        C338   1.402       .  A
C337        C342   1.401       .  A
C337        H344   1.084       .  S
C338        C339   1.414       .  A
C339        C340   1.402       .  A
C339        N346   1.430       .  S
C340        C341   1.404       .  A
C340        H345   1.084       .  S
C341        C342   1.416       .  A
C342        N343   1.431       .  S
N343        O347   1.262       .  A
N343        O348   1.262       .  A
N346        O350   1.262       .  A
N346        O349   1.262       .  A
C351        C352   1.404       .  A
C351        C356   1.398       .  A
C351        H358   1.082       .  S
C352        C353   1.419       .  A
C353        C354   1.398       .  A
C353        N360   1.430       .  S
C354        C355   1.397       .  A
C354        H359   1.083       .  S
C355        C356   1.411       .  A
C356        N357   1.435       .  S
N357        O361   1.263       .  A
N357        O362   1.262       .  A
N360        O364   1.262       .  A
N360        O363   1.262       .  A
C365        C366   1.404       .  A
C365        C370   1.401       .  A
C365        H372   1.084       .  S
C366        C367   1.416       .  A
C367        C368   1.404       .  A
C367        N374   1.432       .  S
C368        C369   1.405       .  A
C368        H373   1.084       .  S
C369        C370   1.414       .  A
C370        N371   1.429       .  S
N371        O375   1.262       .  A
N371        O376   1.262       .  A
N374        O378   1.262       .  A
N374        O377   1.262       .  A
C379        C380   1.404       .  A
C379        C384   1.406       .  A
C379        H386   1.083       .  S
C380        C381   1.409       .  A
C381        C382   1.394       .  A
C381        N388   1.433       .  S
C382        C383   1.401       .  A
C382        H387   1.084       .  S
C383        C384   1.413       .  A
C384        N385   1.434       .  S
N385        O389   1.263       .  A
N385        O390   1.262       .  A
N388        O392   1.262       .  A
N388        O391   1.262       .  A
C393        C394   1.404       .  A
C393        C398   1.400   1_556  A
C393        H400   1.083       .  S
C394        C395   1.414   1_556  A
C395        C396   1.400       .  A
C395        N402   1.431       .  S
C396        C397   1.405       .  A
C396        H401   1.083       .  S
C397        C398   1.416       .  A
C398        N399   1.429       .  S
N399        O403   1.262       .  A
N399        O404   1.262   1_545  A
N402        O406   1.262   1_554  A
N402        O405   1.262       .  A
C407        C408   1.406   1_554  A
C407        C412   1.406       .  A
C407        H414   1.083       .  S
C408        C409   1.410       .  A
C409        C410   1.396   1_556  A
C409        N416   1.429       .  S
C410        C411   1.407       .  A
C410        H415   1.083       .  S
C411        C412   1.415       .  A
C412        N413   1.429       .  S
N413        O417   1.262       .  A
N413        O418   1.262       .  A
N416        O420   1.262       .  A
N416        O419   1.262       .  A
C421        C422   1.402       .  A
C421        C426   1.396       .  A
C421        H428   1.084   1_545  S
C422        C423   1.411       .  A
C423        C424   1.405       .  A
C423        N430   1.428       .  S
C424        C425   1.405       .  A
C424        H429   1.083       .  S
C425        C426   1.413       .  A
C426        N427   1.436       .  S
N427        O431   1.263       .  A
N427        O432   1.262       .  A
N430        O434   1.262       .  A
N430        O433   1.262       .  A
C435        C436   1.406       .  A
C435        C440   1.404       .  A
C435        H442   1.083       .  S
C436        C437   1.413       .  A
C437        C438   1.399       .  A
C437        N444   1.429       .  S
C438        C439   1.406       .  A
C438        H443   1.083       .  S
C439        C440   1.416       .  A
C440        N441   1.429       .  S
N441        O445   1.262       .  A
N441        O446   1.262       .  A
N444        O448   1.262       .  A
N444        O447   1.261       .  A
C449        C450   1.406       .  A
C449        C454   1.399       .  A
C449        H456   1.083       .  S
C450        C451   1.413       .  A
C451        C452   1.402       .  A
C451        N458   1.431       .  S
C452        C453   1.408       .  A
C452        H457   1.083       .  S
C453        C454   1.413       .  A
C454        N455   1.429       .  S
N455        O459   1.262       .  A
N455        O460   1.262       .  A
N458        O462   1.262       .  A
N458        O461   1.262       .  A
C463        C464   1.402       .  A
C463        C468   1.399       .  A
C463        H470   1.083       .  S
C464        C465   1.412       .  A
C465        C466   1.401       .  A
C465        N472   1.430       .  S
C466        C467   1.405       .  A
C466        H471   1.083       .  S
C467        C468   1.415       .  A
C468        N469   1.429       .  S
N469        O473   1.262       .  A
N469        O474   1.262       .  A
N472        O476   1.262       .  A
N472        O475   1.262       .  A
C477        C478   1.401       .  A
C477        C482   1.397       .  A
C477        H484   1.084       .  S
C478        C479   1.410       .  A
C479        C480   1.405       .  A
C479        N486   1.430       .  S
C480        C481   1.404       .  A
C480        H485   1.083       .  S
C481        C482   1.409       .  A
C482        N483   1.430       .  S
N483        O487   1.262       .  A
N483        O488   1.262       .  A
N486        O490   1.261       .  A
N486        O489   1.262       .  A
C491        C492   1.409       .  A
C491        C496   1.398       .  A
C491        H498   1.085       .  S
C492        C493   1.412       .  A
C493        C494   1.400       .  A
C493        N500   1.428       .  S
C494        C495   1.405       .  A
C494        H499   1.084       .  S
C495        C496   1.407       .  A
C496        N497   1.429       .  S
N497        O501   1.262       .  A
N497        O502   1.262       .  A
N500        O504   1.262       .  A
N500        O503   1.262       .  A
C505        C506   1.405       .  A
C505        C510   1.403   1_556  A
C505        H512   1.084       .  S
C506        C507   1.416   1_556  A
C507        C508   1.400       .  A
C507        N514   1.429       .  S
C508        C509   1.404       .  A
C508        H513   1.084       .  S
C509        C510   1.416       .  A
C510        N511   1.430   1_655  S
N511        O515   1.262       .  A
N511        O516   1.262   1_455  A
N514        O518   1.262       .  A
N514        O517   1.262       .  A
C519        C520   1.406       .  A
C519        C524   1.405       .  A
C519        H526   1.083       .  S
C520        C521   1.415       .  A
C521        C522   1.400       .  A
C521        N528   1.429       .  S
C522        C523   1.402       .  A
C522        H527   1.084       .  S
C523        C524   1.413       .  A
C524        N525   1.431       .  S
N525        O529   1.262       .  A
N525        O530   1.262       .  A
N528        O532   1.262       .  A
N528        O531   1.262       .  A
C533        C534   1.404       .  A
C533        C538   1.401       .  A
C533        H540   1.084       .  S
C534        C535   1.417       .  A
C535        C536   1.399       .  A
C535        N542   1.429       .  S
C536        C537   1.401       .  A
C536        H541   1.085       .  S
C537        C538   1.415       .  A
C538        N539   1.434       .  S
N539        O543   1.263       .  A
N539        O544   1.262       .  A
N542        O546   1.262       .  A
N542        O545   1.262       .  A
C547        C548   1.405       .  A
C547        C552   1.402   1_556  A
C547        H554   1.084       .  S
C548        C549   1.416   1_556  A
C549        C550   1.397       .  A
C549        N556   1.430   1_554  S
C550        C551   1.402       .  A
C550        H555   1.085       .  S
C551        C552   1.416       .  A
C552        N553   1.431       .  S
N553        O557   1.262       .  A
N553        O558   1.262       .  A
N556        O560   1.261       .  A
N556        O559   1.262   1_556  A
C561        C562   1.401   1_655  A
C561        C566   1.396       .  A
C561        H568   1.084   1_655  S
C562        C563   1.412   1_455  A
C563        C564   1.405       .  A
C563        N570   1.428       .  S
C564        C565   1.403       .  A
C564        H569   1.083       .  S
C565        C566   1.411       .  A
C566        N567   1.433       .  S
N567        O571   1.262       .  A
N567        O572   1.262       .  A
N570        O574   1.262       .  A
N570        O573   1.262   1_655  A
C575        C576   1.402       .  A
C575        C580   1.401       .  A
C575        H582   1.084       .  S
C576        C577   1.414       .  A
C577        C578   1.401       .  A
C577        N584   1.430       .  S
C578        C579   1.404       .  A
C578        H583   1.083       .  S
C579        C580   1.418       .  A
C580        N581   1.430       .  S
N581        O585   1.262       .  A
N581        O586   1.262       .  A
N584        O588   1.262       .  A
N584        O587   1.262       .  A
C589        C590   1.407       .  A
C589        C594   1.403       .  A
C589        H596   1.083       .  S
C590        C591   1.418       .  A
C591        C592   1.402       .  A
C591        N598   1.429       .  S
C592        C593   1.403       .  A
C592        H597   1.084       .  S
C593        C594   1.411       .  A
C594        N595   1.429       .  S
N595        O599   1.262       .  A
N595        O600   1.262       .  A
N598        O602   1.262   1_545  A
N598        O601   1.262       .  A
C603        C604   1.407       .  A
C603        C608   1.400       .  A
C603        H610   1.082       .  S
C604        C605   1.419       .  A
C605        C606   1.404       .  A
C605        N612   1.429       .  S
C606        C607   1.400       .  A
C606        H611   1.082       .  S
C607        C608   1.409       .  A
C608        N609   1.432       .  S
N609        O613   1.262       .  A
N609        O614   1.262       .  A
N612        O616   1.262       .  A
N612        O615   1.262       .  A
C617        C618   1.401       .  A
C617        C622   1.399       .  A
C617        H624   1.083       .  S
C618        C619   1.417       .  A
C619        C620   1.401       .  A
C619        N626   1.432       .  S
C620        C621   1.403       .  A
C620        H625   1.083       .  S
C621        C622   1.417       .  A
C622        N623   1.431       .  S
N623        O627   1.262       .  A
N623        O628   1.262       .  A
N626        O630   1.262       .  A
N626        O629   1.262       .  A
C631        C632   1.405       .  A
C631        C636   1.401       .  A
C631        H638   1.084       .  S
C632        C633   1.415       .  A
C633        C634   1.398       .  A
C633        N640   1.429       .  S
C634        C635   1.403       .  A
C634        H639   1.084       .  S
C635        C636   1.416       .  A
C636        N637   1.430       .  S
N637        O641   1.261       .  A
N637        O642   1.262       .  A
N640        O644   1.262       .  A
N640        O643   1.262   1_655  A
C645        C646   1.408       .  A
C645        C650   1.401       .  A
C645        H652   1.083       .  S
C646        C647   1.415       .  A
C647        C648   1.404       .  A
C647        N654   1.430       .  S
C648        C649   1.405       .  A
C648        H653   1.083       .  S
C649        C650   1.410       .  A
C650        N651   1.431       .  S
N651        O655   1.262       .  A
N651        O656   1.262       .  A
N654        O658   1.262       .  A
N654        O657   1.262       .  A
C659        C660   1.400       .  A
C659        C664   1.395       .  A
C659        H666   1.084   1_545  S
C660        C661   1.412       .  A
C661        C662   1.406       .  A
C661        N668   1.429       .  S
C662        C663   1.404       .  A
C662        H667   1.083       .  S
C663        C664   1.411       .  A
C664        N665   1.433   1_655  S
N665        O669   1.262       .  A
N665        O670   1.262       .  A
N668        O672   1.262       .  A
N668        O671   1.262       .  A
