geometry optimzed in LAMMPS
_audit_creation_date              2020-12-01 
_audit_creation_method            'lammps2cif' 
_symmetry_space_group_name_H-M    'P1' 
_symmetry_Int_Tables_number       1 
_symmetry_cell_setting            triclinic 
loop_ 
_symmetry_equiv_pos_as_xyz 
  x,y,z 
_cell_length_a                    42.79983893 
_cell_length_b                    42.50949383466062 
_cell_length_c                    42.978755771513214 
_cell_angle_alpha                 89.65270213689381 
_cell_angle_beta                  89.9362434689385 
_cell_angle_gamma                 89.8021615288721 
loop_ 
_atom_site_label 
_atom_site_type_symbol 
_atom_site_fract_x 
_atom_site_fract_y 
_atom_site_fract_z 
_atom_site_charge 
C1          C  0.10125976  0.69864095  0.94393715     0.03900
C2          C  0.09007134  0.70997843  0.91542260    -0.12300
C3          C  0.06005377  0.70231589  0.90516934     0.01400
C4          C  0.04049268  0.68364670  0.92415819    -0.10800
C5          C  0.05116019  0.67224018  0.95316779     0.03900
C6          C  0.08190611  0.67939673  0.96256800    -0.10200
H7          H  0.10497164  0.72452822  0.90089865     0.09500
H8          H  0.01730492  0.67757584  0.91612017     0.07000
H9          H  0.09089871  0.66971353  0.98417184     0.06800
C10         C  0.85130334  0.70000676  0.94809693     0.03900
C11         C  0.86153700  0.71143879  0.91935163    -0.12300
C12         C  0.89062746  0.70277273  0.90741807     0.01400
C13         C  0.91029494  0.68259613  0.92494407    -0.10800
C14         C  0.90068049  0.67122423  0.95443434     0.03900
C15         C  0.87077863  0.67969869  0.96555648    -0.10200
H16         H  0.84633282  0.72662323  0.90571392     0.09500
H17         H  0.93272110  0.67551893  0.91553628     0.07000
H18         H  0.86254367  0.67027870  0.98756201     0.06800
C19         C  0.89008019  0.69284633  0.15331421     0.03900
C20         C  0.90997723  0.67518700  0.13382254    -0.12300
C21         C  0.90063446  0.66741811  0.10329227     0.01400
C22         C  0.87072567  0.67714008  0.09287834    -0.10800
C23         C  0.85090039  0.69486181  0.11247098     0.03900
C24         C  0.86083900  0.70244733  0.14233905    -0.10200
H25         H  0.93266728  0.66768956  0.14228906     0.09500
H26         H  0.86276225  0.67059641  0.06989511     0.14500
H27         H  0.84573457  0.71643203  0.15714823     0.06800
C28         C  0.05902403  0.70450767  0.14767630     0.03900
C29         C  0.04047377  0.68378498  0.12988563    -0.12300
C30         C  0.05148409  0.67202239  0.10117957     0.01400
C31         C  0.08183790  0.68038363  0.09135693    -0.10800
C32         C  0.10026220  0.70112419  0.10911927     0.03900
C33         C  0.08848095  0.71324269  0.13682934    -0.10200
H34         H  0.01796055  0.67628600  0.13871814     0.09500
H35         H  0.09133890  0.67036893  0.07021792     0.07000
H36         H  0.10315065  0.72813393  0.15104855     0.06800
C37         C  0.89399471  0.43230542  0.15080213     0.03900
C38         C  0.86560117  0.42201133  0.13896269    -0.12300
C39         C  0.85636653  0.43009564  0.10895627     0.01400
C40         C  0.87605073  0.44848057  0.08988881    -0.10800
C41         C  0.90497695  0.45927356  0.10130419     0.03900
C42         C  0.91356788  0.45143750  0.13219318    -0.10200
H43         H  0.85026558  0.40784084  0.15343799     0.09500
H44         H  0.86840645  0.45522601  0.06675344     0.07000
H45         H  0.93519376  0.46033829  0.14175645     0.06800
C46         C  0.85434294  0.43222965  0.94709904     0.03900
C47         C  0.87397224  0.45131220  0.96520202    -0.12300
C48         C  0.90331953  0.46084915  0.95371249     0.01400
C49         C  0.91228263  0.45129342  0.92347925    -0.10800
C50         C  0.89264092  0.43163074  0.90557944     0.03900
C51         C  0.86388409  0.42242373  0.91771575    -0.10200
H52         H  0.86612036  0.45924751  0.98782830     0.09500
H53         H  0.93412489  0.45956627  0.91369996     0.07000
H54         H  0.84820761  0.40835889  0.90373796     0.06800
C55         C  0.10350420  0.43904657  0.93868569     0.03900
C56         C  0.08393333  0.45618324  0.95889598    -0.12300
C57         C  0.05313165  0.46402078  0.95007782     0.01400
C58         C  0.04238787  0.45499285  0.92037945    -0.10800
C59         C  0.06196545  0.43780027  0.90013881     0.03900
C60         C  0.09213941  0.42979835  0.90969349    -0.10200
H61         H  0.09262634  0.46345559  0.98138860     0.09500
H62         H  0.01908062  0.46160417  0.91294545     0.07000
H63         H  0.10706951  0.41635057  0.89424890     0.06800
C64         C  0.06245717  0.43662600  0.15376474     0.03900
C65         C  0.09239779  0.42787875  0.14413752    -0.12300
C66         C  0.10386029  0.43685655  0.11494404     0.01400
C67         C  0.08453726  0.45422473  0.09446141    -0.10800
C68         C  0.05386381  0.46271246  0.10325365     0.03900
C69         C  0.04319062  0.45421247  0.13332763    -0.10200
H70         H  0.10706677  0.41409602  0.15966920     0.09500
H71         H  0.09341113  0.46128831  0.07185958     0.07000
H72         H  0.02015766  0.46154602  0.14092699     0.06800
O73         O  0.03926945  0.61962866  0.96445312    -0.74500
O74         O  0.01223024  0.65739353  0.99125075    -0.53400
C75         C  0.03275158  0.64843406  0.97081935     0.79200
O76         O  0.91515957  0.51361622  0.96518496    -0.59100
O77         O  0.94268110  0.47532208  0.99116243    -0.52200
C78         C  0.92183660  0.48462505  0.97115984     0.71200
O79         O  0.91395008  0.61838129  0.96542781    -0.73700
O80         O  0.94008970  0.65673443  0.99195711    -0.54300
C81         C  0.91971382  0.64739742  0.97171147     0.77200
O82         O  0.04044643  0.51571065  0.96348294    -0.58800
O83         O  0.01499619  0.47633349  0.98971629    -0.52000
C84         C  0.03480390  0.48655628  0.96914203     0.73800
Zr85       Zr  0.02335860  0.56726294  0.98111944     2.54700
O86         O  0.02041441  0.56885767  0.92451207    -0.79400
O87         O  0.08024076  0.56718244  0.98375725    -0.92800
Zr88       Zr  0.93173771  0.56596517  0.98164483     2.64700
O89         O  0.93542791  0.56735003  0.92506885    -0.97800
O90         O  0.87492471  0.56564713  0.98380047    -0.79800
O91         O  0.97698841  0.59804365  0.98133227    -0.83200
O92         O  0.97809711  0.53519154  0.98088718    -2.17900
O93         O  0.04156895  0.51463806  0.08951904    -0.66600
O94         O  0.01570679  0.47576051  0.06344748    -0.51200
C95         C  0.03574702  0.48557794  0.08391013     0.72200
O96         O  0.91458083  0.61566525  0.09077687    -0.59500
O97         O  0.93958801  0.65511156  0.06422535    -0.51500
C98         C  0.91964461  0.64485223  0.08470698     0.74000
O99         O  0.91701171  0.51197002  0.09009772    -0.70900
O100        O  0.94304331  0.47423259  0.06238560    -0.49600
C101        C  0.92305504  0.48314874  0.08332467     0.75400
O102        O  0.04079207  0.61890021  0.08920432    -0.66200
O103        O  0.01222680  0.65687040  0.06393458    -0.53400
C104        C  0.03345476  0.64783685  0.08364506     0.73800
Zr105      Zr  0.02440444  0.56654286  0.07231130     2.77500
O106        O  0.02278739  0.56772005  0.12894872    -0.97000
O107        O  0.08107141  0.56602399  0.06724377    -0.77800
Zr108      Zr  0.93269091  0.56447858  0.07319714     2.70100
O109        O  0.93760336  0.56401385  0.12962349    -0.79000
O110        O  0.87581842  0.56403321  0.07148524    -0.98100
Zr111      Zr  0.97665667  0.62921351  0.02764503     2.21500
Zr112      Zr  0.97910980  0.50273346  0.02681893     2.11100
O113        O  0.97920857  0.53416235  0.07299318    -2.46800
O114        O  0.97777333  0.59685485  0.07342192    -0.78800
O115        O  0.02479058  0.53532364  0.02659348    -0.71000
O116        O  0.93112118  0.59642210  0.02773101    -2.32000
O117        O  0.02366620  0.59830494  0.02684039    -2.28200
O118        O  0.93230260  0.53388660  0.02719922    -0.72800
H119        H  0.97815078  0.52248520  0.96280898     0.79200
H120        H  0.91215381  0.60927457  0.02803309     0.80300
H121        H  0.97952801  0.52087500  0.09133748     0.82500
H122        H  0.04190811  0.61182210  0.02673658     0.80100
H123        H  0.86996070  0.55734396  0.00478358     0.43200
H124        H  0.87031851  0.54337911  0.06252513     0.42100
H125        H  0.91580696  0.56416062  0.13736324     0.41800
H126        H  0.00589014  0.55296823  0.13478534     0.39800
H127        H  0.08883685  0.56426552  0.08888018     0.42900
H128        H  0.08559165  0.54844561  0.99650037     0.37700
H129        H  0.00892825  0.54960398  0.91867832     0.43800
H130        H  0.95045225  0.58443358  0.92049248     0.40200
H131        H  0.04224721  0.55706561  0.13574078     0.45100
H132        H  0.08555087  0.58525069  0.99715897     0.43800
H133        H  0.94670528  0.54783697  0.91941137     0.44000
H134        H  0.86929713  0.56250309  0.09355071     0.44300
C135        C  0.60787426  0.98552113  0.15232647     0.03900
C136        C  0.61903753  0.95642895  0.14242471    -0.12300
C137        C  0.61042206  0.94455176  0.11356959     0.01400
C138        C  0.59016055  0.96222001  0.09423197    -0.10800
C139        C  0.57919953  0.99202109  0.10362935     0.03900
C140        C  0.58803969  0.00345179  0.13300243    -0.10200
H141        H  0.63377103  0.94250251  0.15776755     0.09500
H142        H  0.58253625  0.95255909  0.07224498     0.07000
H143        H  0.57904907  0.02583886  0.14106553     0.06800
C144        C  0.60559621  0.98325898  0.90472469     0.03900
C145        C  0.61504887  0.95342790  0.91454864    -0.12300
C146        C  0.60592478  0.94160633  0.94347224     0.01400
C147        C  0.58763873  0.96040385  0.96343400    -0.10800
C148        C  0.57860770  0.99105040  0.95429140     0.03900
C149        C  0.58742169  0.00220792  0.92458170    -0.10200
H150        H  0.62943686  0.93911002  0.89935587     0.09500
H151        H  0.58027121  0.95114663  0.98580546     0.07000
H152        H  0.57974667  0.02524925  0.91674422     0.06800
C153        C  0.60715030  0.18782797  0.94454858     0.03900
C154        C  0.61621029  0.17692175  0.91545296    -0.12300
C155        C  0.60569034  0.14810487  0.90452008     0.01400
C156        C  0.58559995  0.12965751  0.92325897    -0.10800
C157        C  0.57691310  0.13985139  0.95332564     0.03900
C158        C  0.58767445  0.16929627  0.96371565    -0.10200
H159        H  0.63101063  0.19146922  0.90079571     0.09500
H160        H  0.57660060  0.10767143  0.91439511     0.07000
H161        H  0.58054722  0.17798104  0.98630169     0.06800
C162        C  0.60590252  0.18600184  0.11215496     0.03900
C163        C  0.58799823  0.16636139  0.09293958    -0.12300
C164        C  0.57530676  0.13823021  0.10488914     0.01400
C165        C  0.58091706  0.13006658  0.13633943    -0.10800
C166        C  0.59944916  0.14955446  0.15530542     0.03900
C167        C  0.61170467  0.17730909  0.14288467    -0.10200
H168        H  0.58320544  0.17341611  0.06914034     0.09500
H169        H  0.57115577  0.10858245  0.14584931     0.07000
H170        H  0.62602951  0.19235363  0.15730863     0.06800
C171        C  0.34577031  0.19317633  0.94537906     0.03900
C172        C  0.36482155  0.17369529  0.96428614    -0.12300
C173        C  0.36872226  0.14141485  0.95721687     0.01400
C174        C  0.35354612  0.12912878  0.93092538    -0.10800
C175        C  0.33532406  0.14887020  0.91173157     0.03900
C176        C  0.33163205  0.18045902  0.91908380    -0.10200
H177        H  0.37624354  0.18341880  0.98452632     0.09500
H178        H  0.35679819  0.10464965  0.92476306     0.07000
H179        H  0.31709947  0.19524636  0.90432670     0.06800
C180        C  0.34135428  0.97745083  0.90503367     0.03900
C181        C  0.33159995  0.94854173  0.91700451    -0.12300
C182        C  0.34131503  0.93808646  0.94617854     0.01400
C183        C  0.36124309  0.95707636  0.96422839    -0.10800
C184        C  0.37093241  0.98687746  0.95311007     0.03900
C185        C  0.36114047  0.99672534  0.92308889    -0.10200
H186        H  0.31647542  0.93370723  0.90318013     0.09500
H187        H  0.36943368  0.94854928  0.98659968     0.07000
H188        H  0.36870802  0.01924727  0.91393717     0.06800
C189        C  0.34325576  0.97626240  0.15192812     0.03900
C190        C  0.33432239  0.94683131  0.14076816    -0.12300
C191        C  0.34389675  0.93648807  0.11153054     0.01400
C192        C  0.36223458  0.95629924  0.09249570    -0.10800
C193        C  0.37091187  0.98650366  0.10280981     0.03900
C194        C  0.36158119  0.99617494  0.13284164    -0.10200
H195        H  0.31999309  0.93157855  0.15517550     0.09500
H196        H  0.36995311  0.94812456  0.06991260     0.07000
H197        H  0.36860084  0.01903329  0.14129986     0.06800
C198        C  0.34092707  0.19144604  0.10399149     0.03900
C199        C  0.36141639  0.17211228  0.08672631    -0.12300
C200        C  0.36719392  0.14074641  0.09629715     0.01400
C201        C  0.35324877  0.12959010  0.12379205    -0.10800
C202        C  0.33377230  0.14939797  0.14129777     0.03900
C203        C  0.32748216  0.17986372  0.13120857    -0.10200
H204        H  0.37284338  0.18142280  0.06614667     0.09500
H205        H  0.35851197  0.10607913  0.13222702     0.07000
H206        H  0.31272963  0.19502169  0.14522147     0.06800
O207        O  0.52657762  0.00196704  0.09117885    -0.74500
O208        O  0.56400378  0.02960780  0.06457809    -0.53400
C209        C  0.55518969  0.00900015  0.08506744     0.79200
O210        O  0.42311171  0.99993188  0.96509970    -0.59100
O211        O  0.38445968  0.02597797  0.99139187    -0.52200
C212        C  0.39416160  0.00565962  0.97107838     0.71200
O213        O  0.52656628  0.00202780  0.96654402    -0.73700
O214        O  0.56412051  0.02925748  0.99296981    -0.54300
C215        C  0.55514947  0.00866379  0.97273733     0.77200
O216        O  0.42275582  0.99938157  0.09058940    -0.58800
O217        O  0.38420653  0.02595835  0.06434089    -0.52000
C218        C  0.39388964  0.00538022  0.08463175     0.73800
Zr219      Zr  0.47420557  0.01720330  0.07393427     2.54700
O220        O  0.47659066  0.96004546  0.07130321    -0.79400
O221        O  0.47212928  0.01980071  0.13051964    -0.92800
Zr222      Zr  0.47441037  0.01816494  0.98229121     2.64700
O223        O  0.47794389  0.96094104  0.98289333    -0.97800
O224        O  0.47502005  0.02406785  0.92591582    -0.79800
O225        O  0.50530477  0.01794484  0.02819804    -0.83200
O226        O  0.44336489  0.01635403  0.02800515    -2.17900
O227        O  0.41978500  0.12804061  0.08731499    -0.66600
O228        O  0.38259944  0.09937270  0.06183275    -0.51200
C229        C  0.39126750  0.12139072  0.08062259     0.72200
O230        O  0.52459679  0.12801168  0.96559255    -0.59500
O231        O  0.56283348  0.10179075  0.99258144    -0.51500
C232        C  0.55342384  0.12199091  0.97185875     0.74000
O233        O  0.42095085  0.12921008  0.96857399    -0.70900
O234        O  0.38322824  0.09953105  0.99249467    -0.49600
C235        C  0.39228150  0.12203841  0.97408280     0.75400
O236        O  0.52352205  0.12534986  0.09282310    -0.66200
O237        O  0.56225507  0.10134463  0.06473646    -0.53400
C238        C  0.55241694  0.12026433  0.08619976     0.73800
Zr239      Zr  0.47218215  0.10951409  0.07422083     2.77500
O240        O  0.47427464  0.16675385  0.07251093    -0.97000
O241        O  0.46921043  0.10558921  0.13069983    -0.77800
Zr242      Zr  0.47297696  0.11059441  0.98273941     2.70100
O243        O  0.47296306  0.16778831  0.98535775    -0.79000
O244        O  0.47112345  0.10750963  0.92621686    -0.98100
Zr245      Zr  0.53582467  0.06507998  0.02852249     2.21500
Zr246      Zr  0.41096325  0.06247542  0.02774608     2.11100
O247        O  0.44179734  0.10950567  0.02823228    -2.46800
O248        O  0.50369309  0.11129031  0.02869509    -0.78800
O249        O  0.44192261  0.06276663  0.07424681    -0.71000
O250        O  0.50472302  0.06481349  0.98223303    -2.32000
O251        O  0.50419845  0.06393106  0.07460949    -2.28200
O252        O  0.44250110  0.06390766  0.98172166    -0.72800
H253        H  0.43077731  0.99762276  0.02791847     0.79200
H254        H  0.51790805  0.06511877  0.96397067     0.80300
H255        H  0.42858588  0.12793417  0.02813857     0.82500
H256        H  0.51709582  0.06396874  0.09299464     0.80100
H257        H  0.45618023  0.03675607  0.92106745     0.43200
H258        H  0.47612884  0.12906452  0.91896403     0.42100
H259        H  0.48567941  0.17264590  0.00393710     0.41800
H260        H  0.45615543  0.17321540  0.05964235     0.39800
H261        H  0.45146806  0.09125029  0.13477186     0.42900
H262        H  0.48921927  0.03423097  0.13637529     0.37700
H263        H  0.49483088  0.95554429  0.05782958     0.43800
H264        H  0.46571773  0.95433476  0.00135575     0.40200
H265        H  0.46873946  0.17339452  0.09386771     0.45100
H266        H  0.47928202  0.99880530  0.13769677     0.43800
H267        H  0.46539068  0.95397700  0.96488572     0.44000
H268        H  0.48963112  0.09479558  0.92040155     0.44300
C269        C  0.09178877  0.98603221  0.66185621     0.03900
C270        C  0.08183450  0.95569703  0.66870886    -0.12300
C271        C  0.05392173  0.94417722  0.65672083     0.01400
C272        C  0.03500540  0.96371647  0.63790078    -0.10800
C273        C  0.04424148  0.99485610  0.63101900     0.03900
C274        C  0.07316146  0.00566847  0.64267329    -0.10200
H275        H  0.09644847  0.94047396  0.68295382     0.09500
H276        H  0.01330142  0.95471732  0.62859463     0.07000
H277        H  0.08150436  0.02884619  0.63622157     0.06800
C278        C  0.84830069  0.98370643  0.65692324     0.03900
C279        C  0.86813094  0.00355494  0.63950719    -0.12300
C280        C  0.89645356  0.99184076  0.62727019     0.01400
C281        C  0.90438856  0.96000082  0.63265922    -0.10800
C282        C  0.88432609  0.94042380  0.65012225     0.03900
C283        C  0.85635465  0.95239903  0.66163446    -0.10200
H284        H  0.86119613  0.02767489  0.63490169     0.09500
H285        H  0.92618022  0.95067047  0.62368948     0.07000
H286        H  0.84101442  0.93731700  0.67517939     0.06800
C287        C  0.88803492  0.19787554  0.65712909     0.03900
C288        C  0.85933903  0.18714263  0.66831158    -0.12300
C289        C  0.84814519  0.15746380  0.66041364     0.01400
C290        C  0.86626783  0.13789052  0.64077001    -0.10800
C291        C  0.89566945  0.14791218  0.62942232     0.03900
C292        C  0.90608081  0.17839913  0.63738991    -0.10200
H293        H  0.84509779  0.20252822  0.68257118     0.09500
H294        H  0.85726413  0.11516394  0.63394672     0.07000
H295        H  0.92801774  0.18702468  0.62813489     0.06800
C296        C  0.05123802  0.19442687  0.66066865     0.03900
C297        C  0.03270669  0.17669896  0.64003138    -0.12300
C298        C  0.04132653  0.14564682  0.63218102     0.01400
C299        C  0.06926674  0.13311705  0.64437193    -0.10800
C300        C  0.08799884  0.15131699  0.66418316     0.03900
C301        C  0.07880296  0.18157521  0.67231978    -0.10200
H302        H  0.01180597  0.18706687  0.63005617     0.09500
H303        H  0.07684161  0.10971037  0.63783674     0.07000
H304        H  0.09364606  0.19549538  0.68731700     0.06800
C305        C  0.88804522  0.19316467  0.39177359     0.03900
C306        C  0.85855059  0.18298651  0.38256542    -0.12300
C307        C  0.84685459  0.15403109  0.39262950     0.01400
C308        C  0.86533578  0.13470534  0.41231184    -0.10800
C309        C  0.89566962  0.14421556  0.42129558     0.03900
C310        C  0.90660267  0.17382837  0.41117504    -0.10200
H311        H  0.84410539  0.19825236  0.36822702     0.09500
H312        H  0.85607545  0.11255052  0.42075658     0.07000
H313        H  0.92912061  0.18220826  0.41905532     0.06800
C314        C  0.85300035  0.98801989  0.38879671     0.03900
C315        C  0.87090296  0.00683662  0.40902133    -0.12300
C316        C  0.89991396  0.99594148  0.42050108     0.01400
C317        C  0.91010417  0.96545080  0.41235243    -0.10800
C318        C  0.89188580  0.94663564  0.39248234     0.03900
C319        C  0.86384267  0.95833402  0.38060940    -0.10200
H320        H  0.86191286  0.02946364  0.41639297     0.09500
H321        H  0.93190771  0.95634706  0.42157764     0.07000
H322        H  0.84967207  0.94359657  0.36573564     0.06800
C323        C  0.09632549  0.98693147  0.39412455     0.03900
C324        C  0.08495667  0.95789045  0.38454368    -0.12300
C325        C  0.05569553  0.94732765  0.39411348     0.01400
C326        C  0.03717420  0.96627652  0.41382522    -0.10800
C327        C  0.04794374  0.99605558  0.42356935     0.03900
C328        C  0.07794505  0.00597289  0.41391534    -0.10200
H329        H  0.09941590  0.94290309  0.37007032     0.09500
H330        H  0.01471864  0.95772507  0.42181998     0.07000
H331        H  0.08707955  0.02821943  0.42198460     0.06800
C332        C  0.05908097  0.19678095  0.40080305     0.03900
C333        C  0.08628834  0.18409693  0.38817561    -0.12300
C334        C  0.09416033  0.15277318  0.39320896     0.01400
C335        C  0.07464488  0.13339228  0.41140300    -0.10800
C336        C  0.04712723  0.14584706  0.42459918     0.03900
C337        C  0.03954046  0.17772752  0.41928196    -0.10200
H338        H  0.10148461  0.19876890  0.37404210     0.09500
H339        H  0.08136622  0.10922499  0.41609573     0.07000
H340        H  0.01832337  0.18747162  0.42911981     0.06800
O341        O  0.91057023  0.00416726  0.57605789    -0.74500
O342        O  0.93313633  0.03301401  0.61479663    -0.53400
C343        C  0.91484221  0.01098858  0.60483026     0.79200
O344        O  0.03626397  0.00887480  0.47569956    -0.59100
O345        O  0.00893487  0.03470282  0.43751033    -0.52200
C346        C  0.02984240  0.01461024  0.44693566     0.71200
O347        O  0.03344522  0.00782468  0.57894446    -0.73700
O348        O  0.00564225  0.03388062  0.61644667    -0.54300
C349        C  0.02653621  0.01362414  0.60748978     0.77200
O350        O  0.91033147  0.00756257  0.47295222    -0.58800
O351        O  0.93738157  0.03499355  0.43576369    -0.52000
C352        C  0.91707035  0.01417317  0.44445539     0.73800
Zr353      Zr  0.92595075  0.02387259  0.52509172     2.54700
O354        O  0.92802294  0.96668769  0.52295634    -0.79400
O355        O  0.86909072  0.02675673  0.52494427    -0.92800
Zr356      Zr  0.01794025  0.02540804  0.52709057     2.64700
O357        O  0.01728868  0.96810850  0.52770583    -0.97800
O358        O  0.07455197  0.03062493  0.52875985    -0.79800
O359        O  0.97122315  0.02402386  0.55700899    -0.83200
O360        O  0.97262167  0.02415276  0.49535018    -2.17900
O361        O  0.90636851  0.13149274  0.47361773    -0.66600
O362        O  0.93570528  0.10691181  0.43630288    -0.51200
C363        C  0.91374393  0.12605724  0.44509005     0.72200
O364        O  0.02967005  0.13551781  0.57970789    -0.59500
O365        O  0.00451052  0.10618057  0.61686389    -0.51500
C366        C  0.02376395  0.12799893  0.60818046     0.74000
O367        O  0.03357853  0.13417119  0.47614628    -0.70900
O368        O  0.00921346  0.10650834  0.43764103    -0.49600
C369        C  0.02876622  0.12738872  0.44742293     0.75400
O370        O  0.90724161  0.13463443  0.57722996    -0.66200
O371        O  0.93322199  0.10747750  0.61546878    -0.53400
C372        C  0.91327603  0.12860843  0.60604004     0.73800
Zr373      Zr  0.92388744  0.11641588  0.52576018     2.77500
O374        O  0.92662815  0.17366474  0.52521926    -0.97000
O375        O  0.86705897  0.11409401  0.52554591    -0.77800
Zr376      Zr  0.01560947  0.11785961  0.52757567     2.70100
O377        O  0.01220246  0.17503400  0.52613606    -0.79000
O378        O  0.07242715  0.11691125  0.53078499    -0.98100
Zr379      Zr  0.96935028  0.07021361  0.58873328     2.21500
Zr380      Zr  0.97221768  0.07106820  0.46421700     2.11100
O381        O  0.97042385  0.11771200  0.49554579    -2.46800
O382        O  0.96910095  0.11715294  0.55762248    -0.78800
O383        O  0.92524190  0.07043101  0.49453753    -0.71000
O384        O  0.01642925  0.07130940  0.55828136    -2.32000
O385        O  0.92364239  0.06974469  0.55646259    -2.28200
O386        O  0.01794770  0.07195616  0.49635513    -0.72800
H387        H  0.97320417  0.00565134  0.48231740     0.79200
H388        H  0.03461746  0.07157383  0.57166353     0.80300
H389        H  0.97034991  0.13623050  0.48247385     0.82500
H390        H  0.90502696  0.06932110  0.56927607     0.80100
H391        H  0.07965813  0.04483719  0.51115537     0.43200
H392        H  0.07940999  0.10673566  0.51130794     0.42100
H393        H  0.98996599  0.17963385  0.52172495     0.41800
H394        H  0.93185266  0.17949533  0.50349805     0.39800
H395        H  0.86161244  0.09973539  0.54292150     0.42900
H396        H  0.86400962  0.04213228  0.50829245     0.37700
H397        H  0.94574286  0.96078525  0.53660658     0.43800
H398        H  0.00713182  0.96207957  0.50794275     0.40200
H399        H  0.90471965  0.18068798  0.52794416     0.45100
H400        H  0.86346527  0.03763224  0.54447756     0.43800
H401        H  0.03944533  0.96188761  0.52505765     0.44000
H402        H  0.07866497  0.13920410  0.52834547     0.44300
C403        C  0.94572505  0.39880618  0.26477584    -0.10100
C404        C  0.97416566  0.41035229  0.25405924    -0.04000
C405        C  0.00249859  0.39830447  0.26451521    -0.10100
C406        C  0.00273553  0.37654607  0.28947080     0.10900
C407        C  0.97378812  0.36612631  0.30220280    -0.01900
C408        C  0.94512856  0.37661927  0.28915907     0.10700
C409        C  0.91681443  0.36424337  0.30026217    -0.11900
C410        C  0.91652253  0.34204483  0.32427332    -0.11900
C411        C  0.94452782  0.33164072  0.33787994     0.10700
C412        C  0.97347900  0.34362723  0.32658044    -0.01900
C413        C  0.03080212  0.36459145  0.30160691    -0.12000
C414        C  0.03050569  0.34231828  0.32558978    -0.12000
C415        C  0.00212910  0.33145642  0.33810668     0.10900
C416        C  0.00140831  0.30821467  0.36155614    -0.10100
C417        C  0.97291861  0.29914099  0.37450388    -0.04000
C418        C  0.94453941  0.30889911  0.36202919    -0.10100
H419        H  0.89469873  0.37187365  0.29053615     0.08100
H420        H  0.89421912  0.33321754  0.33236074     0.08100
H421        H  0.05310188  0.37240585  0.29253215     0.08300
H422        H  0.05263479  0.33358790  0.33434003     0.08300
H423        H  0.97420646  0.42599547  0.23394197     0.04700
H424        H  0.97279274  0.28008350  0.39147022     0.04700
C425        C  0.29395775  0.09393131  0.25309782    -0.10100
C426        C  0.30676760  0.06516832  0.24471298    -0.04000
C427        C  0.29652334  0.03684533  0.25745802    -0.10100
C428        C  0.27488066  0.03732212  0.28240570     0.10900
C429        C  0.26315829  0.06680880  0.29302993    -0.01900
C430        C  0.27176552  0.09517610  0.27748488     0.10700
C431        C  0.25771657  0.12364442  0.28646264    -0.11900
C432        C  0.23596336  0.12447957  0.31080071    -0.11900
C433        C  0.22803273  0.09696261  0.32723950     0.10700
C434        C  0.24164338  0.06779875  0.31821283    -0.01900
C435        C  0.26455803  0.00950363  0.29684156    -0.12000
C436        C  0.24342274  0.01051326  0.32169008    -0.12000
C437        C  0.23205068  0.03936708  0.33293937     0.10900
C438        C  0.21074258  0.04064730  0.35817956    -0.10100
C439        C  0.20087997  0.06988895  0.36902115    -0.04000
C440        C  0.20668154  0.09751877  0.35244068    -0.10100
H441        H  0.26368903  0.14546901  0.27480173     0.08100
H442        H  0.22582829  0.14691521  0.31718137     0.08100
H443        H  0.27305717  0.98681873  0.28914649     0.08300
H444        H  0.23629930  0.98856182  0.33242812     0.08300
H445        H  0.32270611  0.06457252  0.22499355     0.04700
H446        H  0.18323453  0.07054943  0.38721610     0.04700
C447        C  0.21130338  0.39473766  0.99850685    -0.10100
C448        C  0.19924663  0.40398444  0.02706914    -0.04000
C449        C  0.21156294  0.39353046  0.05519421    -0.10100
C450        C  0.23805998  0.37365984  0.05518300     0.10900
C451        C  0.25139497  0.36452401  0.02620734    -0.01900
C452        C  0.23769135  0.37473609  0.99766065     0.10700
C453        C  0.25041572  0.36436814  0.96938550    -0.11900
C454        C  0.27552984  0.34332947  0.96903133    -0.11900
C455        C  0.28902360  0.33253881  0.99691129     0.10700
C456        C  0.27754150  0.34396683  0.02576616    -0.01900
C457        C  0.25122201  0.36236941  0.08300930    -0.12000
C458        C  0.27700718  0.34216316  0.08253029    -0.12000
C459        C  0.29047703  0.33274623  0.05422989     0.10900
C460        C  0.31584106  0.31130574  0.05358157    -0.10100
C461        C  0.32830965  0.30262061  0.02495962    -0.04000
C462        C  0.31347026  0.31015225  0.99692490    -0.10100
H463        H  0.24068739  0.37213725  0.94738632     0.08100
H464        H  0.28445058  0.33550645  0.94677964     0.08100
H465        H  0.24153809  0.36904968  0.10531003     0.08300
H466        H  0.28646781  0.33390113  0.10448316     0.08300
H467        H  0.17822289  0.41841463  0.02742027     0.04700
H468        H  0.34613992  0.28439057  0.02485571     0.04700
C469        C  0.63849341  0.03925158  0.26843812    -0.10100
C470        C  0.62315272  0.06737272  0.26177936    -0.04000
C471        C  0.63612456  0.09627550  0.26973809    -0.10100
C472        C  0.66066930  0.09716583  0.29162831     0.10900
C473        C  0.67375531  0.06840444  0.30258742    -0.01900
C474        C  0.66368748  0.03935166  0.28980984     0.10700
C475        C  0.67919679  0.01147029  0.29845397    -0.11900
C476        C  0.70334970  0.01184808  0.32039941    -0.11900
C477        C  0.71299449  0.04019181  0.33400884     0.10700
C478        C  0.69851678  0.06887094  0.32446622    -0.01900
C479        C  0.67267873  0.12582302  0.30237331    -0.12000
C480        C  0.69706323  0.12631340  0.32392046    -0.12000
C481        C  0.71005224  0.09814951  0.33535096     0.10900
C482        C  0.73466711  0.09825791  0.35711373    -0.10100
C483        C  0.74627012  0.06985356  0.36857245    -0.04000
C484        C  0.73710874  0.04100694  0.35655217    -0.10100
H485        H  0.67215706  0.98912586  0.28877753     0.08100
H486        H  0.71425222  0.98975939  0.32694273     0.08100
H487        H  0.66298212  0.14799252  0.29433830     0.08300
H488        H  0.70550877  0.14886189  0.33188661     0.08300
H489        H  0.60480067  0.06700547  0.24433192     0.04700
H490        H  0.76622895  0.07044360  0.38418573     0.04700
C491        C  0.94840813  0.74092150  0.26007967    -0.10100
C492        C  0.97693682  0.72833473  0.25090663    -0.04000
C493        C  0.00531183  0.74014284  0.26118564    -0.10100
C494        C  0.00533390  0.76401478  0.28413418     0.10900
C495        C  0.97630152  0.77501754  0.29622858    -0.01900
C496        C  0.94762126  0.76412176  0.28346861     0.10700
C497        C  0.91928208  0.77675725  0.29426653    -0.11900
C498        C  0.91896149  0.79969267  0.31742119    -0.11900
C499        C  0.94694740  0.81039206  0.33065611     0.10700
C500        C  0.97593365  0.79802004  0.32004097    -0.01900
C501        C  0.03323798  0.77738950  0.29503034    -0.12000
C502        C  0.03284370  0.80009924  0.31854278    -0.12000
C503        C  0.00454223  0.81006180  0.33192740     0.10900
C504        C  0.00374497  0.83200103  0.35671511    -0.10100
C505        C  0.97495912  0.84111746  0.36876339    -0.04000
C506        C  0.94697257  0.83328867  0.35428511    -0.10100
H507        H  0.89720333  0.76878123  0.28495154     0.08100
H508        H  0.89664162  0.80871421  0.32532013     0.08100
H509        H  0.05557710  0.76985541  0.28580197     0.08300
H510        H  0.05487744  0.80935105  0.32673328     0.08300
H511        H  0.97707989  0.71154008  0.23193351     0.04700
H512        H  0.97456273  0.85936257  0.38637882     0.04700
C513        C  0.29085944  0.03433776  0.79950895    -0.10100
C514        C  0.29888207  0.06247317  0.81359007    -0.04000
C515        C  0.28289177  0.09019080  0.80737279    -0.10100
C516        C  0.26136497  0.09144466  0.78253526     0.10900
C517        C  0.25536240  0.06354307  0.76541274    -0.01900
C518        C  0.26904882  0.03446240  0.77485773     0.10700
C519        C  0.26039621  0.00666528  0.75967123    -0.11900
C520        C  0.23940138  0.00749692  0.73474378    -0.11900
C521        C  0.22686754  0.03619409  0.72403061     0.10700
C522        C  0.23457140  0.06444908  0.73978286    -0.01900
C523        C  0.24567731  0.11936611  0.77445262    -0.12000
C524        C  0.22520194  0.12025369  0.74912120    -0.12000
C525        C  0.21984942  0.09323918  0.73120453     0.10900
C526        C  0.19995050  0.09394178  0.70497155    -0.10100
C527        C  0.19590521  0.06672376  0.68757587    -0.04000
C528        C  0.20619478  0.03746868  0.69833318    -0.10100
H529        H  0.27017875  0.98421673  0.76677387     0.08100
H530        H  0.23356319  0.98565183  0.72332035     0.08100
H531        H  0.24957697  0.14077336  0.78739612     0.08300
H532        H  0.21397576  0.14236676  0.74323665     0.08300
H533        H  0.31529131  0.06200995  0.83291807     0.04700
H534        H  0.17893566  0.06740715  0.66880032     0.04700
C535        C  0.00172795  0.39599879  0.79189934    -0.10100
C536        C  0.97359883  0.40863787  0.80230734    -0.04000
C537        C  0.94477515  0.39950732  0.79059817    -0.10100
C538        C  0.94389511  0.37759366  0.76576315     0.10900
C539        C  0.97252349  0.36650046  0.75274755    -0.01900
C540        C  0.00160556  0.37512545  0.76638703     0.10700
C541        C  0.02943873  0.36270617  0.75419815    -0.11900
C542        C  0.02894052  0.34237138  0.72877802    -0.11900
C543        C  0.00060875  0.33388966  0.71463586     0.10700
C544        C  0.97206245  0.34575477  0.72687353    -0.01900
C545        C  0.91554535  0.36618093  0.75385390    -0.12000
C546        C  0.91516204  0.34502754  0.72893788    -0.12000
C547        C  0.94307851  0.33511809  0.71466162     0.10900
C548        C  0.94301543  0.31440533  0.68877229    -0.10100
C549        C  0.97144444  0.30639095  0.67490580    -0.04000
C550        C  0.00000261  0.31316804  0.68894699    -0.10100
H551        H  0.05181099  0.36894204  0.76410647     0.08100
H552        H  0.05097267  0.33358274  0.71989246     0.08100
H553        H  0.89347039  0.37381712  0.76361428     0.08300
H554        H  0.89280646  0.33702036  0.72032324     0.08300
H555        H  0.97402650  0.42374869  0.82261277     0.04700
H556        H  0.97122853  0.28887309  0.65663894     0.04700
C557        C  0.21837641  0.72381491  0.99913809    -0.10100
C558        C  0.21014405  0.71015521  0.02760033    -0.04000
C559        C  0.21851524  0.72379487  0.05589828    -0.10100
C560        C  0.24052862  0.74867058  0.05588898     0.10900
C561        C  0.25245346  0.76015689  0.02710754    -0.01900
C562        C  0.24055276  0.74844409  0.99860732     0.10700
C563        C  0.25033513  0.76225994  0.97043446    -0.11900
C564        C  0.27245885  0.78639758  0.97008818    -0.11900
C565        C  0.28523861  0.79765974  0.99793004     0.10700
C566        C  0.27439980  0.78513212  0.02678209    -0.01900
C567        C  0.24997505  0.76309424  0.08370868    -0.12000
C568        C  0.27114638  0.78808976  0.08335863    -0.12000
C569        C  0.28388351  0.79908313  0.05522192     0.10900
C570        C  0.30592752  0.82373557  0.05440678    -0.10100
C571        C  0.31992413  0.83195981  0.02629220    -0.04000
C572        C  0.30830115  0.82148807  0.99799641    -0.10100
H573        H  0.24132738  0.75396365  0.94843271     0.08100
H574        H  0.27990624  0.79592442  0.94787052     0.08100
H575        H  0.24111731  0.75492248  0.10593597     0.08300
H576        H  0.27798794  0.79842334  0.10528325     0.08300
H577        H  0.19161568  0.69277241  0.02763870     0.04700
H578        H  0.33647405  0.85131811  0.02609649     0.04700
C579        C  0.73897980  0.39789503  0.00196331    -0.10100
C580        C  0.74658536  0.41096450  0.03065633    -0.04000
C581        C  0.74007565  0.39510364  0.05837300    -0.10100
C582        C  0.71823992  0.37013930  0.05816535     0.10900
C583        C  0.70564659  0.35994823  0.02929343    -0.01900
C584        C  0.71730786  0.37270615  0.00092814     0.10700
C585        C  0.70739780  0.35967311  0.97259250    -0.11900
C586        C  0.68535093  0.33531329  0.97199942    -0.11900
C587        C  0.67267801  0.32316894  0.99973658     0.10700
C588        C  0.68342927  0.33518801  0.02871500    -0.01900
C589        C  0.70899501  0.35494878  0.08577999    -0.12000
C590        C  0.68688232  0.33076332  0.08526623    -0.12000
C591        C  0.67361784  0.32089780  0.05708487     0.10900
C592        C  0.65100147  0.29680766  0.05613648    -0.10100
C593        C  0.63734586  0.28888626  0.02795743    -0.04000
C594        C  0.64972269  0.29910202  0.99976914    -0.10100
H595        H  0.71623138  0.36878012  0.95071170     0.08100
H596        H  0.67784888  0.32633113  0.94970518     0.08100
H597        H  0.71839133  0.36223060  0.10798094     0.08300
H598        H  0.67986212  0.32005546  0.10709901     0.08300
H599        H  0.76416970  0.42935725  0.03115925     0.04700
H600        H  0.62032955  0.26992429  0.02780418     0.04700
C601        C  0.94226612  0.74402951  0.79555682    -0.10100
C602        C  0.97073252  0.73305258  0.80693120    -0.04000
C603        C  0.99894616  0.74547448  0.79688573    -0.10100
C604        C  0.99930717  0.76636902  0.77123932     0.10900
C605        C  0.97044917  0.77570392  0.75736237    -0.01900
C606        C  0.94167642  0.76526077  0.77022364     0.10700
C607        C  0.91341197  0.77664998  0.75784009    -0.11900
C608        C  0.91329460  0.79779044  0.73277834    -0.11900
C609        C  0.94143589  0.80821945  0.71947567     0.10700
C610        C  0.97032160  0.79714402  0.73199434    -0.01900
C611        C  0.02740410  0.77835763  0.75937530    -0.12000
C612        C  0.02728908  0.79939024  0.73432433    -0.12000
C613        C  0.99906743  0.80923880  0.72063160     0.10900
C614        C  0.99862250  0.83143287  0.69615734    -0.10100
C615        C  0.97035969  0.83929227  0.68201132    -0.04000
C616        C  0.94179936  0.82996276  0.69433979    -0.10100
H617        H  0.89123924  0.76902898  0.76737378     0.08100
H618        H  0.89105035  0.80588176  0.72372726     0.08100
H619        H  0.04961468  0.77138990  0.76936235     0.08300
H620        H  0.04946226  0.80801699  0.72568632     0.08300
H621        H  0.97076554  0.71754488  0.82716294     0.04700
H622        H  0.97035857  0.85726377  0.66391789     0.04700
C623        C  0.64371111  0.04046426  0.79204955    -0.10100
C624        C  0.62706587  0.06806196  0.79760683    -0.04000
C625        C  0.63842621  0.09724068  0.78818007    -0.10100
C626        C  0.66388257  0.09828002  0.76687858     0.10900
C627        C  0.67760980  0.06962382  0.75651595    -0.01900
C628        C  0.66822446  0.04057441  0.77005980     0.10700
C629        C  0.68339806  0.01265988  0.76126288    -0.11900
C630        C  0.70676664  0.01301240  0.73852113    -0.11900
C631        C  0.71612248  0.04139072  0.72445581     0.10700
C632        C  0.70205407  0.07013838  0.73412599    -0.01900
C633        C  0.67623387  0.12693169  0.75604930    -0.12000
C634        C  0.70059177  0.12749901  0.73417852    -0.12000
C635        C  0.71329168  0.09941825  0.72237911     0.10900
C636        C  0.73707766  0.09943177  0.69928144    -0.10100
C637        C  0.74855889  0.07080046  0.68851579    -0.04000
C638        C  0.73943347  0.04209617  0.70114701    -0.10100
H639        H  0.67661861  0.99029578  0.77136828     0.08100
H640        H  0.71734100  0.99088877  0.73179815     0.08100
H641        H  0.66658860  0.14906383  0.76399241     0.08300
H642        H  0.70901225  0.15007563  0.72600176     0.08300
H643        H  0.60873077  0.06742420  0.81511028     0.04700
H644        H  0.76802253  0.07093963  0.67224638     0.04700
C645        C  0.73521548  0.73066220  0.00371208    -0.10100
C646        C  0.74374779  0.71815525  0.03250064    -0.04000
C647        C  0.73665780  0.73361425  0.06013792    -0.10100
C648        C  0.71494010  0.75860131  0.05996633     0.10900
C649        C  0.70249993  0.76913908  0.03114555    -0.01900
C650        C  0.71378772  0.75620233  0.00277064     0.10700
C651        C  0.70393179  0.76953915  0.97443024    -0.11900
C652        C  0.68265264  0.79459120  0.97388932    -0.11900
C653        C  0.67037312  0.80680816  0.00167088     0.10700
C654        C  0.68044349  0.79408882  0.03062774    -0.01900
C655        C  0.70562272  0.77337848  0.08763807    -0.12000
C656        C  0.68292459  0.79708662  0.08725293    -0.12000
C657        C  0.66963561  0.80735418  0.05907469     0.10900
C658        C  0.64616489  0.83091960  0.05826331    -0.10100
C659        C  0.63523360  0.84148776  0.02958931    -0.04000
C660        C  0.64832143  0.83156681  0.00161080    -0.10100
H661        H  0.71238439  0.76033917  0.95252322     0.08100
H662        H  0.67538117  0.80401125  0.95156689     0.08100
H663        H  0.71514545  0.76590624  0.10983334     0.08300
H664        H  0.67560965  0.80716359  0.10917637     0.08300
H665        H  0.76164117  0.69996357  0.03316336     0.04700
H666        H  0.61888032  0.86110617  0.02910804     0.04700
C667        C  0.03414899  0.28259944  0.40100873    -0.11500
C668        C  0.02774836  0.28712924  0.36926582     0.05500
C669        C  0.03650733  0.26357425  0.34791316    -0.06800
C670        C  0.04794388  0.23492666  0.35900141    -0.07500
C671        C  0.05013915  0.22885923  0.39102901    -0.02100
C672        C  0.04416923  0.25333175  0.41217968     0.04700
N673        N  0.04621179  0.24849911  0.44500570     0.67200
H674        H  0.02715561  0.30042242  0.41758758     0.16100
H675        H  0.05294299  0.21640583  0.34245908     0.15800
N676        N  0.02998378  0.26646991  0.31540262     0.74900
O677        O  0.07011530  0.25813700  0.45914682    -0.38500
O678        O  0.02138217  0.24393681  0.46022251    -0.38500
O679        O  0.05238295  0.27112084  0.29683589    -0.39200
O680        O  0.00482958  0.25526391  0.30500489    -0.39200
C681        C  0.15109184  0.14621144  0.39828240    -0.11500
C682        C  0.12416172  0.14183466  0.38060561     0.05500
C683        C  0.12670662  0.13075249  0.34998535    -0.06800
C684        C  0.15593580  0.12105936  0.33861161    -0.07500
C685        C  0.18274084  0.12230686  0.35760680    -0.02100
C686        C  0.18024869  0.13662582  0.38711903     0.04700
N687        N  0.20660258  0.13917595  0.40722456     0.67200
H688        H  0.14933010  0.15631871  0.42132021     0.16100
H689        H  0.15713389  0.10957763  0.31618714     0.15800
N690        N  0.09943684  0.12759622  0.33109722     0.74900
O691        O  0.22011587  0.16542217  0.40917243    -0.38500
O692        O  0.20950187  0.11968132  0.42929712    -0.38500
O693        O  0.08871992  0.15144807  0.31705465    -0.39200
O694        O  0.08222737  0.10380559  0.33470167    -0.39200
C695        C  0.15191443  0.99860629  0.40644744    -0.11500
C696        C  0.12822264  0.99596444  0.38416683     0.05500
C697        C  0.13600409  0.99932481  0.35238196    -0.06800
C698        C  0.16612284  0.00850636  0.34373929    -0.07500
C699        C  0.18887372  0.01483045  0.36623406    -0.02100
C700        C  0.18222540  0.00749651  0.39769084     0.04700
N701        N  0.20555315  0.01062043  0.42117629     0.67200
H702        H  0.14674834  0.99420820  0.43077758     0.16100
H703        H  0.17058000  0.01427012  0.31952598     0.15800
N704        N  0.11309636  0.99567423  0.32858590     0.74900
O705        O  0.20546479  0.03472186  0.43815956    -0.38500
O706        O  0.21985608  0.98628427  0.43037762    -0.38500
O707        O  0.09955227  0.01982349  0.31788462    -0.39200
O708        O  0.11356263  0.97095016  0.31252048    -0.39200
C709        C  0.04651638  0.89041588  0.40471727    -0.11500
C710        C  0.04587923  0.91573230  0.38373019     0.05500
C711        C  0.03946118  0.90987807  0.35214012    -0.06800
C712        C  0.03180171  0.87952563  0.34243663    -0.07500
C713        C  0.02893367  0.85476334  0.36392287    -0.02100
C714        C  0.03802439  0.86008891  0.39516406     0.04700
N715        N  0.03635545  0.83557514  0.41797642     0.67200
H716        H  0.05287066  0.89435763  0.42878372     0.16100
H717        H  0.02394480  0.87630439  0.31868844     0.15800
N718        N  0.03769661  0.93503885  0.33007408     0.74900
O719        O  0.06085875  0.82031133  0.42445958    -0.38500
O720        O  0.01406151  0.83558481  0.43721653    -0.38500
O721        O  0.05826483  0.93699231  0.30913894    -0.39200
O722        O  0.01192726  0.94902292  0.32620528    -0.39200
C723        C  0.79767945  0.99850938  0.40171724    -0.11500
C724        C  0.82106380  0.99696552  0.37902569     0.05500
C725        C  0.81275243  0.00080364  0.34740643    -0.06800
C726        C  0.78233402  0.01017000  0.33957129    -0.07500
C727        C  0.75978993  0.01528463  0.36270736    -0.02100
C728        C  0.76708148  0.00691967  0.39375683     0.04700
N729        N  0.74413648  0.00886502  0.41780697     0.67200
H730        H  0.80330087  0.99352508  0.42584167     0.16100
H731        H  0.77729469  0.01665089  0.31565561     0.15800
N732        N  0.83528096  0.99732102  0.32311287     0.74900
O733        O  0.74400155  0.03241331  0.43553082    -0.38500
O734        O  0.73085962  0.98392300  0.42671141    -0.38500
O735        O  0.83515839  0.97249678  0.30715979    -0.39200
O736        O  0.84844130  0.02153047  0.31224881    -0.39200
C737        C  0.90629935  0.90993321  0.35055567    -0.11500
C738        C  0.90170171  0.91495327  0.38242617     0.05500
C739        C  0.90355885  0.88916821  0.40309293    -0.06800
C740        C  0.91258486  0.85961569  0.39194358    -0.07500
C741        C  0.92113026  0.85559665  0.36063431    -0.02100
C742        C  0.91588829  0.88062208  0.33948739     0.04700
N743        N  0.92314753  0.87770298  0.30717844     0.67200
H744        H  0.90361703  0.92931400  0.33424191     0.16100
H745        H  0.91669424  0.84070471  0.40849039     0.15800
N746        N  0.89747009  0.89269496  0.43554690     0.74900
O747        O  0.90117320  0.87295771  0.28824390    -0.38500
O748        O  0.94863434  0.88862428  0.29711813    -0.38500
O749        O  0.87173631  0.88320785  0.44637013    -0.39200
O750        O  0.92015587  0.89655292  0.45384209    -0.39200
C751        C  0.91425076  0.26399330  0.34438466    -0.11500
C752        C  0.91874792  0.28639270  0.36771695     0.05500
C753        C  0.90904518  0.27911414  0.39839186    -0.06800
C754        C  0.89899017  0.24862143  0.40576060    -0.07500
C755        C  0.89786782  0.22530998  0.38290618    -0.02100
C756        C  0.90412405  0.23361557  0.35170885     0.04700
N757        N  0.90264615  0.21093384  0.32743619     0.67200
H758        H  0.92204385  0.26892280  0.32084101     0.16100
H759        H  0.89270664  0.24292207  0.42957014     0.15800
N760        N  0.91096854  0.30185175  0.42263897     0.74900
O761        O  0.87959612  0.21164764  0.30920674    -0.38500
O762        O  0.92755620  0.19770884  0.31867219    -0.38500
O763        O  0.88631462  0.31577241  0.43108020    -0.39200
O764        O  0.93405420  0.30116967  0.44086325    -0.39200
C765        C  0.79038147  0.14294983  0.40410490    -0.11500
C766        C  0.81497151  0.14497669  0.38241722     0.05500
C767        C  0.80821922  0.14065348  0.35053219    -0.06800
C768        C  0.77845439  0.13107267  0.34132640    -0.07500
C769        C  0.75508691  0.12544809  0.36336306    -0.02100
C770        C  0.76027087  0.13411595  0.39445955     0.04700
N771        N  0.73542783  0.13140254  0.41654557     0.67200
H772        H  0.79464060  0.14791897  0.42842532     0.16100
H773        H  0.77479216  0.12427370  0.31733069     0.15800
N774        N  0.83191864  0.14334783  0.32730822     0.74900
O775        O  0.73246728  0.10624691  0.43197598    -0.38500
O776        O  0.71243323  0.14995512  0.41440135    -0.38500
O777        O  0.84451884  0.11859018  0.31710204    -0.39200
O778        O  0.83260194  0.16791235  0.31074099    -0.39200
C779        C  0.04220361  0.25012343  0.64561794    -0.11500
C780        C  0.04329802  0.22715388  0.66903360     0.05500
C781        C  0.03863287  0.23621699  0.70026383    -0.06800
C782        C  0.02932833  0.26697671  0.70699697    -0.07500
C783        C  0.02465382  0.28915792  0.68315453    -0.02100
C784        C  0.03344900  0.28108712  0.65246743     0.04700
N785        N  0.03181454  0.30356906  0.62770795     0.67200
H786        H  0.04762017  0.24385114  0.62180001     0.16100
H787        H  0.02242458  0.27246858  0.73063424     0.15800
N788        N  0.04070302  0.21397475  0.72522877     0.74900
O789        O  0.05577773  0.31964106  0.62149087    -0.38500
O790        O  0.01095233  0.30068688  0.60721143    -0.38500
O791        O  0.06365280  0.21540607  0.74356578    -0.39200
O792        O  0.01629734  0.19986501  0.73394922    -0.39200
C793        C  0.14488284  0.14335111  0.65838249    -0.11500
C794        C  0.11791799  0.13970761  0.67632497     0.05500
C795        C  0.12015059  0.12804391  0.70685889    -0.06800
C796        C  0.14903229  0.11739425  0.71814314    -0.07500
C797        C  0.17582230  0.11832130  0.69911732    -0.02100
C798        C  0.17377735  0.13285548  0.66951925     0.04700
N799        N  0.20034577  0.13496091  0.64951569     0.67200
H800        H  0.14334726  0.15368131  0.63531151     0.16100
H801        H  0.14994738  0.10568572  0.74060248     0.15800
N802        N  0.09280397  0.12548810  0.72581389     0.74900
O803        O  0.20392108  0.11461952  0.62854032    -0.38500
O804        O  0.21390568  0.16112984  0.64667022    -0.38500
O805        O  0.07368190  0.10359100  0.72071474    -0.39200
O806        O  0.08397729  0.14900445  0.74132120    -0.39200
C807        C  0.91312747  0.26823416  0.70520444    -0.11500
C808        C  0.91765262  0.29138555  0.68230174     0.05500
C809        C  0.90856664  0.28455670  0.65134956    -0.06800
C810        C  0.89905182  0.25400799  0.64345024    -0.07500
C811        C  0.89799996  0.23005074  0.66596640    -0.02100
C812        C  0.90378198  0.23779269  0.69731802     0.04700
N813        N  0.90304681  0.21432556  0.72118316     0.67200
H814        H  0.92051507  0.27261203  0.72890600     0.16100
H815        H  0.89306884  0.24883216  0.61952896     0.15800
N816        N  0.91075318  0.30782142  0.62732488     0.74900
O817        O  0.92768035  0.19906957  0.72714862    -0.38500
O818        O  0.88173744  0.21551807  0.74142329    -0.38500
O819        O  0.93344739  0.30684350  0.60858885    -0.39200
O820        O  0.88644065  0.32281722  0.61962242    -0.39200
C821        C  0.77884713  0.13629143  0.71239472    -0.11500
C822        C  0.75682553  0.12675991  0.69031440     0.05500
C823        C  0.76330825  0.13255540  0.65845695    -0.06800
C824        C  0.79306258  0.14271058  0.64923904    -0.07500
C825        C  0.81640162  0.14836522  0.67126325    -0.02100
C826        C  0.80844790  0.14694540  0.70320429     0.04700
N827        N  0.83085487  0.15370214  0.72676811     0.67200
H828        H  0.77453700  0.13184734  0.73689218     0.16100
H829        H  0.79822491  0.14532164  0.62466428     0.15800
N830        N  0.74105359  0.12498354  0.63495669     0.74900
O831        O  0.82841790  0.17923318  0.74137816    -0.38500
O832        O  0.84595047  0.13126256  0.73895268    -0.38500
O833        O  0.72498095  0.14689241  0.62308954    -0.39200
O834        O  0.74414952  0.09962444  0.62017573    -0.39200
C835        C  0.89788117  0.90481934  0.69303789    -0.11500
C836        C  0.89376615  0.90891978  0.66107092     0.05500
C837        C  0.89705607  0.88300188  0.64121968    -0.06800
C838        C  0.90804868  0.85419546  0.65339302    -0.07500
C839        C  0.91555328  0.85111745  0.68533707    -0.02100
C840        C  0.90836686  0.87635615  0.70533478     0.04700
N841        N  0.91596717  0.87534779  0.73762007     0.67200
H842        H  0.89440667  0.92453871  0.70857956     0.16100
H843        H  0.91354264  0.83521796  0.63755826     0.15800
N844        N  0.88958314  0.88590809  0.60891534     0.74900
O845        O  0.94077550  0.88844803  0.74641848    -0.38500
O846        O  0.89413665  0.87169132  0.75702811    -0.38500
O847        O  0.91001123  0.89589568  0.59015104    -0.39200
O848        O  0.86127688  0.88590549  0.60071347    -0.39200
C849        C  0.78581615  0.01059865  0.71335368    -0.11500
C850        C  0.76054127  0.01568772  0.69316927     0.05500
C851        C  0.76338380  0.00632170  0.66178540    -0.06800
C852        C  0.79222866  0.99596615  0.65037393    -0.07500
C853        C  0.81831826  0.99451154  0.66984025    -0.02100
C854        C  0.81465818  0.00016549  0.70191883     0.04700
N855        N  0.84061268  0.99792062  0.72269084     0.67200
H856        H  0.78424491  0.01818614  0.73734514     0.16100
H857        H  0.79449883  0.98995198  0.62599738     0.15800
N858        N  0.73799854  0.01004284  0.64055234     0.74900
O859        O  0.85651708  0.02220162  0.72815426    -0.38500
O860        O  0.84267237  0.97459097  0.74087196    -0.38500
O861        O  0.72152698  0.98640182  0.63415117    -0.39200
O862        O  0.73784067  0.03330446  0.62220381    -0.39200
C863        C  0.16178149  0.00499865  0.71272079    -0.11500
C864        C  0.18462151  0.01155459  0.69019512     0.05500
C865        C  0.17777310  0.00508066  0.65867969    -0.06800
C866        C  0.14727756  0.99718172  0.64998062    -0.07500
C867        C  0.12348694  0.99488380  0.67222745    -0.02100
C868        C  0.13131441  0.99712217  0.70406981     0.04700
N869        N  0.10811593  0.99442086  0.72784533     0.67200
H870        H  0.16639208  0.01006950  0.73698415     0.16100
H871        H  0.14201036  0.99340425  0.62562611     0.15800
N872        N  0.20092348  0.00859195  0.63497825     0.74900
O873        O  0.10681226  0.96938188  0.74370483    -0.38500
O874        O  0.09627440  0.01922451  0.73881582    -0.38500
O875        O  0.21355871  0.98416731  0.62404969    -0.39200
O876        O  0.20157346  0.03366787  0.61914125    -0.39200
C877        C  0.03172041  0.85764628  0.65711355    -0.11500
C878        C  0.02444055  0.85325974  0.68873078     0.05500
C879        C  0.03145679  0.87750843  0.70986999    -0.06800
C880        C  0.04096016  0.90677513  0.69863480    -0.07500
C881        C  0.04435318  0.91235507  0.66665530    -0.02100
C882        C  0.04120139  0.88706467  0.64585658     0.04700
N883        N  0.04690987  0.89081745  0.61332294     0.67200
H884        H  0.02657461  0.83917104  0.64062909     0.16100
H885        H  0.04479925  0.92566673  0.71502517     0.15800
N886        N  0.02702849  0.87369496  0.74262718     0.74900
O887        O  0.07292930  0.88209550  0.60250197    -0.38500
O888        O  0.02392789  0.89350681  0.59512313    -0.38500
O889        O  0.05064115  0.86851113  0.75946152    -0.39200
O890        O  0.00277788  0.88488243  0.75507246    -0.39200
C891        C  0.27970036  0.11991671  0.20420983    -0.11500
C892        C  0.29990529  0.11918629  0.23004951     0.05500
C893        C  0.33041010  0.13155513  0.22674330    -0.06800
C894        C  0.34075764  0.14196824  0.19765862    -0.07500
C895        C  0.32153003  0.13964679  0.17162288    -0.02100
C896        C  0.29050859  0.12971692  0.17497277     0.04700
N897        N  0.27080456  0.12707896  0.14830216     0.67200
H898        H  0.25671351  0.10941181  0.20595650     0.16100
H899        H  0.36446988  0.15050698  0.19508413     0.15800
N900        N  0.35238638  0.13049206  0.25169008     0.74900
O901        O  0.27411513  0.10382062  0.13047451    -0.38500
O902        O  0.25629822  0.15106607  0.13860302    -0.38500
O903        O  0.37247050  0.10868485  0.25211273    -0.39200
O904        O  0.35818147  0.15560787  0.26604068    -0.39200
C905        C  0.29678712  0.26541238  0.08138247    -0.11500
C906        C  0.32102505  0.28723387  0.07817467     0.05500
C907        C  0.35156058  0.27822027  0.08735158    -0.06800
C908        C  0.35776087  0.24685285  0.09566686    -0.07500
C909        C  0.33394595  0.22434975  0.09516917    -0.02100
C910        C  0.30299559  0.23416165  0.08922611     0.04700
N911        N  0.27788561  0.21218002  0.08823155     0.67200
H912        H  0.27336207  0.27158017  0.07385273     0.16100
H913        H  0.38134341  0.23991217  0.10188797     0.15800
N914        N  0.37678759  0.30012382  0.08665201     0.74900
O915        O  0.25809619  0.21220066  0.11000092    -0.38500
O916        O  0.27047125  0.20042331  0.06239180    -0.38500
O917        O  0.38582831  0.31196428  0.11193465    -0.39200
O918        O  0.39510798  0.30024897  0.06363291    -0.39200
C919        C  0.29917819  0.98565648  0.18848810    -0.11500
C920        C  0.33153972  0.98598645  0.18301130     0.05500
C921        C  0.35162303  0.99431975  0.20758205    -0.06800
C922        C  0.33903204  0.00467026  0.23587742    -0.07500
C923        C  0.30661669  0.00879220  0.23958510    -0.02100
C924        C  0.28660322  0.99698496  0.21637957     0.04700
N925        N  0.25344710  0.99970762  0.21915313     0.67200
H926        H  0.28339452  0.97833593  0.17021925     0.16100
H927        H  0.35475785  0.01377974  0.25338313     0.15800
N928        N  0.38476587  0.99399786  0.20381824     0.74900
O929        O  0.23968368  0.02260311  0.20624680    -0.38500
O930        O  0.23786136  0.97568615  0.22666762    -0.38500
O931        O  0.39862609  0.01951718  0.19797567    -0.39200
O932        O  0.40020181  0.97122924  0.21491625    -0.39200
C933        C  0.30153219  0.90070093  0.09484992    -0.11500
C934        C  0.33332543  0.90513357  0.10120856     0.05500
C935        C  0.35379247  0.87918197  0.09958336    -0.06800
C936        C  0.34271027  0.85002561  0.08948566    -0.07500
C937        C  0.31164840  0.84647437  0.07972391    -0.02100
C938        C  0.29059260  0.87181520  0.08383261     0.04700
N939        N  0.25891457  0.86982471  0.07356570     0.67200
H940        H  0.28539539  0.92029856  0.09688390     0.16100
H941        H  0.35927281  0.83104913  0.08582782     0.15800
N942        N  0.38619075  0.88230395  0.10665352     0.74900
O943        O  0.25190550  0.87987502  0.04677075    -0.38500
O944        O  0.23754622  0.86631331  0.09352289    -0.38500
O945        O  0.39625003  0.87163311  0.13221288    -0.39200
O946        O  0.40522753  0.88714386  0.08471737    -0.39200
C947        C  0.29560047  0.98983543  0.87167869    -0.11500
C948        C  0.32826026  0.98730088  0.87447844     0.05500
C949        C  0.34681644  0.99108547  0.84752578    -0.06800
C950        C  0.33286804  0.00046941  0.81943062    -0.07500
C951        C  0.30068087  0.00656250  0.81778556    -0.02100
C952        C  0.28175254  0.99876089  0.84348192     0.04700
N953        N  0.24878297  0.00423508  0.84229928     0.67200
H954        H  0.28082965  0.98579850  0.89180920     0.16100
H955        H  0.34769253  0.00670022  0.79989628     0.15800
N956        N  0.37985482  0.98652685  0.84827350     0.74900
O957        O  0.23799664  0.03084661  0.84965135    -0.38500
O958        O  0.23168694  0.98529029  0.82765382    -0.38500
O959        O  0.39108639  0.96181954  0.83650552    -0.39200
O960        O  0.39722448  0.01025989  0.85107872    -0.39200
C961        C  0.35279179  0.88122031  0.95347948    -0.11500
C962        C  0.33152865  0.90619270  0.95599951     0.05500
C963        C  0.30016333  0.89958604  0.96366975    -0.06800
C964        C  0.29128607  0.86882617  0.97118175    -0.07500
C965        C  0.31339353  0.84442659  0.97242644    -0.02100
C966        C  0.34398599  0.85046180  0.96150428     0.04700
N967        N  0.36685166  0.82597501  0.96015856     0.67200
H968        H  0.37649131  0.88572025  0.94577741     0.16100
H969        H  0.26790916  0.86486189  0.98011808     0.15800
N970        N  0.27756286  0.92418822  0.96649463     0.74900
O971        O  0.38674734  0.82358184  0.98168789    -0.38500
O972        O  0.37254834  0.81334223  0.93425775    -0.38500
O973        O  0.25699747  0.92730994  0.94568784    -0.39200
O974        O  0.27288389  0.93621919  0.99287223    -0.39200
C975        C  0.35116334  0.28037794  0.96508650    -0.11500
C976        C  0.31967259  0.28746340  0.97139379     0.05500
C977        C  0.29680624  0.26484164  0.96382910    -0.06800
C978        C  0.30607996  0.23458738  0.95512119    -0.07500
C979        C  0.33781266  0.22619695  0.95336297    -0.02100
C980        C  0.36046737  0.24982028  0.95720368     0.04700
N981        N  0.39303115  0.24310792  0.95450014     0.67200
H982        H  0.36901148  0.29753396  0.97048728     0.16100
H983        H  0.28822954  0.21705708  0.95102927     0.15800
N984        N  0.26414768  0.27119803  0.96706230     0.74900
O985        O  0.40677918  0.24978846  0.92935133    -0.38500
O986        O  0.40898878  0.23990410  0.97899646    -0.38500
O987        O  0.24837361  0.27711439  0.94291194    -0.39200
O988        O  0.25014218  0.26207772  0.99132031    -0.39200
C989        C  0.33072262  0.14444264  0.85425055    -0.11500
C990        C  0.31909930  0.13714136  0.88396266     0.05500
C991        C  0.29078858  0.12080755  0.88690633    -0.06800
C992        C  0.27546200  0.11019549  0.86022761    -0.07500
C993        C  0.28848808  0.11504935  0.83049970    -0.02100
C994        C  0.31568532  0.13331543  0.82756205     0.04700
N995        N  0.33015339  0.13727825  0.79783201     0.67200
H996        H  0.35218770  0.15769442  0.85187966     0.16100
H997        H  0.25521143  0.09517437  0.86289075     0.15800
N998        N  0.27854444  0.11322353  0.91697916     0.74900
O999        O  0.31792440  0.15567066  0.77814290    -0.38500
O1000       O  0.35041414  0.11761603  0.78900438    -0.38500
O1001       O  0.26453050  0.13412454  0.93242064    -0.39200
O1002       O  0.28746286  0.08833679  0.93049514    -0.39200
C1003       C  0.60324308  0.24420120  0.10588012    -0.11500
C1004       C  0.61929482  0.21583636  0.10085233     0.05500
C1005       C  0.64944709  0.21646820  0.08794499    -0.06800
C1006       C  0.66253305  0.24518094  0.07876921    -0.07500
C1007       C  0.64533632  0.27332688  0.08098052    -0.02100
C1008       C  0.61603798  0.27286720  0.09585371     0.04700
N1009       N  0.59814981  0.30114427  0.09847533     0.67200
H1010       H  0.58040554  0.24393719  0.11678544     0.16100
H1011       H  0.68476751  0.24509394  0.06674921     0.15800
N1012       N  0.66594405  0.18783713  0.08198201     0.74900
O1013       O  0.57927845  0.30864674  0.07712833    -0.38500
O1014       O  0.60601507  0.32145746  0.11823412    -0.38500
O1015       O  0.66003483  0.17260053  0.05758419    -0.39200
O1016       O  0.68140590  0.17486778  0.10352123    -0.39200
C1017       C  0.59719871  0.12844776  0.24160810    -0.11500
C1018       C  0.62890746  0.12186987  0.24724979     0.05500
C1019       C  0.65090432  0.12877427  0.22366422    -0.06800
C1020       C  0.64058516  0.13823121  0.19422125    -0.07500
C1021       C  0.60861022  0.14077670  0.18746473    -0.02100
C1022       C  0.58681241  0.13686799  0.21177935     0.04700
N1023       N  0.55402488  0.13969056  0.20639334     0.67200
H1024       H  0.58001430  0.12291645  0.25934981     0.16100
H1025       H  0.65769761  0.14201076  0.17596549     0.15800
N1026       N  0.68350670  0.12280815  0.22796022     0.74900
O1027       O  0.53853057  0.11515969  0.20083071    -0.38500
O1028       O  0.53988359  0.16380299  0.21610274    -0.38500
O1029       O  0.69508861  0.09744396  0.21801150    -0.39200
O1030       O  0.70139593  0.14561921  0.23353467    -0.39200
C1031       C  0.65048716  0.22170395  0.96143171    -0.11500
C1032       C  0.61888017  0.21880185  0.95416815     0.05500
C1033       C  0.59987731  0.24580100  0.95327876    -0.06800
C1034       C  0.61191731  0.27475638  0.96339125    -0.07500
C1035       C  0.64307271  0.27707568  0.97392328    -0.02100
C1036       C  0.66275690  0.25043223  0.97106038     0.04700
N1037       N  0.69426764  0.25089124  0.98188144     0.67200
H1038       H  0.66552209  0.20113231  0.96086313     0.16100
H1039       H  0.59624680  0.29467395  0.96576161     0.15800
N1040       N  0.56835155  0.24375462  0.94252778     0.74900
O1041       O  0.70009080  0.24064458  0.00886886    -0.38500
O1042       O  0.71603367  0.25167048  0.96208647    -0.38500
O1043       O  0.54724268  0.23508573  0.96118388    -0.39200
O1044       O  0.56327915  0.24243318  0.91364163    -0.39200
C1045       C  0.59193119  0.13820146  0.84928999    -0.11500
C1046       C  0.61473968  0.13905772  0.87255405     0.05500
C1047       C  0.64634378  0.13455121  0.86425728    -0.06800
C1048       C  0.65425905  0.12679199  0.83368121    -0.07500
C1049       C  0.63118020  0.12237230  0.81101678    -0.02100
C1050       C  0.59979375  0.13002524  0.81868187     0.04700
N1051       N  0.57529989  0.12759218  0.79628518     0.67200
H1052       H  0.56777673  0.14328275  0.85505200     0.16100
H1053       H  0.67826023  0.12027435  0.82869873     0.15800
N1054       N  0.67050546  0.13500503  0.88713207     0.74900
O1055       O  0.55729137  0.10417049  0.79748981    -0.38500
O1056       O  0.56590640  0.15237629  0.78290645    -0.38500
O1057       O  0.67885981  0.10942499  0.89969519    -0.39200
O1058       O  0.68872112  0.15825197  0.88800838    -0.39200
C1059       C  0.64962676  0.90548628  0.95609637    -0.11500
C1060       C  0.61735268  0.91008171  0.95272743     0.05500
C1061       C  0.59713979  0.88432610  0.95690071    -0.06800
C1062       C  0.60915250  0.85541667  0.96713910    -0.07500
C1063       C  0.64090143  0.85214725  0.97474174    -0.02100
C1064       C  0.66155245  0.87687023  0.96717697     0.04700
N1065       N  0.69413191  0.87470795  0.97411764     0.67200
H1066       H  0.66552035  0.92485603  0.95186368     0.16100
H1067       H  0.59300502  0.83672082  0.97308477     0.15800
N1068       N  0.56424714  0.88742383  0.95233682     0.74900
O1069       O  0.71306469  0.86881208  0.95237824    -0.38500
O1070       O  0.70425493  0.88682321  0.99885499    -0.38500
O1071       O  0.55228940  0.87655861  0.92784870    -0.39200
O1072       O  0.54694885  0.89237425  0.97560368    -0.39200
C1073       C  0.64772832  0.00198133  0.86998201    -0.11500
C1074       C  0.61620229  0.99421019  0.87386359     0.05500
C1075       C  0.59626160  0.99460801  0.84783757    -0.06800
C1076       C  0.60770663  0.00435155  0.81884600    -0.07500
C1077       C  0.63838302  0.01552318  0.81565104    -0.02100
C1078       C  0.65887458  0.01310351  0.84136078     0.04700
N1079       N  0.68988833  0.02538323  0.83997510     0.67200
H1080       H  0.66339739  0.00103159  0.88977474     0.16100
H1081       H  0.59151376  0.00686011  0.79960287     0.15800
N1082       N  0.56389074  0.98720823  0.85077008     0.74900
O1083       O  0.69453655  0.05350572  0.84793999    -0.38500
O1084       O  0.71265585  0.00645664  0.83950223    -0.38500
O1085       O  0.54437259  0.00941658  0.85287341    -0.39200
O1086       O  0.55456446  0.96041745  0.84249617    -0.39200
C1087       C  0.65567281  0.01718122  0.21882986    -0.11500
C1088       C  0.63432997  0.01539608  0.24373060     0.05500
C1089       C  0.60469469  0.00169001  0.23839701    -0.06800
C1090       C  0.59642849  0.99200977  0.20844080    -0.07500
C1091       C  0.61693702  0.99621690  0.18348330    -0.02100
C1092       C  0.64699686  0.00806868  0.18881839     0.04700
N1093       N  0.66795254  0.01304415  0.16337248     0.67200
H1094       H  0.67792752  0.02882997  0.22201389     0.16100
H1095       H  0.57355078  0.98194165  0.20447811     0.15800
N1096       N  0.58185890  0.99943549  0.26253931     0.74900
O1097       O  0.66363102  0.03627317  0.14544548    -0.38500
O1098       O  0.68526984  0.99073978  0.15457116    -0.38500
O1099       O  0.55926340  0.01859079  0.26248082    -0.39200
O1100       O  0.57876705  0.97348136  0.27658514    -0.39200
C1101       C  0.66110161  0.87448043  0.09176911    -0.11500
C1102       C  0.63832785  0.85216543  0.08439135     0.05500
C1103       C  0.60673399  0.85887433  0.09164652    -0.06800
C1104       C  0.59819541  0.88902446  0.10149976    -0.07500
C1105       C  0.62072489  0.91246009  0.10520848    -0.02100
C1106       C  0.65263457  0.90442829  0.10218040     0.04700
N1107       N  0.67670304  0.92699521  0.10719378     0.67200
H1108       H  0.68538684  0.86992762  0.08609880     0.16100
H1109       H  0.57374428  0.89439536  0.10550573     0.15800
N1110       N  0.58278850  0.83603639  0.08716095     0.74900
O1111       O  0.69183141  0.92584823  0.13235521    -0.38500
O1112       O  0.68864076  0.94076373  0.08398812    -0.38500
O1113       O  0.57253496  0.82132474  0.11061092    -0.39200
O1114       O  0.56609413  0.83763743  0.06302127    -0.39200
C1115       C  0.04604456  0.39382942  0.19017800    -0.11500
C1116       C  0.05170609  0.42602092  0.18501075     0.05500
C1117       C  0.04879364  0.44693512  0.21023975    -0.06800
C1118       C  0.03785368  0.43599265  0.23904785    -0.07500
C1119       C  0.02895935  0.40455084  0.24315990    -0.02100
C1120       C  0.03475122  0.38300621  0.21899543     0.04700
N1121       N  0.02583493  0.35077220  0.22239505     0.67200
H1122       H  0.04910547  0.37727205  0.17133016     0.16100
H1123       H  0.03300754  0.45284533  0.25727202     0.15800
N1124       N  0.05545536  0.47963348  0.20683329     0.74900
O1125       O  0.99802406  0.34278640  0.21686586    -0.38500
O1126       O  0.04362614  0.33198124  0.23679977    -0.38500
O1127       O  0.03293471  0.49866591  0.20398754    -0.39200
O1128       O  0.08134990  0.48973412  0.21650296    -0.39200
C1129       C  0.14085130  0.39323157  0.10424666    -0.11500
C1130       C  0.13538748  0.42575600  0.10568154     0.05500
C1131       C  0.16016507  0.44650848  0.09895962    -0.06800
C1132       C  0.18869508  0.43453478  0.08815186    -0.07500
C1133       C  0.19256501  0.40220019  0.08264588    -0.02100
C1134       C  0.16913060  0.38133540  0.09284755     0.04700
N1135       N  0.17226363  0.34819066  0.08854496     0.67200
H1136       H  0.12234825  0.37695093  0.11030896     0.16100
H1137       H  0.20645121  0.45087321  0.08024371     0.15800
N1138       N  0.15644744  0.47977370  0.10162553     0.74900
O1139       O  0.18012295  0.33119992  0.11142048    -0.38500
O1140       O  0.15963449  0.33554769  0.06526221    -0.38500
O1141       O  0.16690903  0.49327303  0.12549202    -0.39200
O1142       O  0.15143004  0.49587114  0.07736439    -0.39200
C1143       C  0.14150702  0.39588485  0.94787650    -0.11500
C1144       C  0.13512338  0.42829893  0.94808677     0.05500
C1145       C  0.15900524  0.44922305  0.95684708    -0.06800
C1146       C  0.18755583  0.43728986  0.96766772    -0.07500
C1147       C  0.19221071  0.40474356  0.97147781    -0.02100
C1148       C  0.16967724  0.38397267  0.95954127     0.04700
N1149       N  0.17346191  0.35067752  0.96223137     0.67200
H1150       H  0.12367882  0.37951684  0.94044418     0.16100
H1151       H  0.20460874  0.45353168  0.97694252     0.15800
N1152       N  0.15430588  0.48249758  0.95637079     0.74900
O1153       O  0.16115041  0.33643491  0.98495624    -0.38500
O1154       O  0.18113936  0.33524785  0.93841215    -0.38500
O1155       O  0.14811896  0.49634236  0.98154112    -0.39200
O1156       O  0.16518844  0.49826861  0.93390866    -0.39200
C1157       C  0.05034843  0.39442756  0.86335050    -0.11500
C1158       C  0.05143608  0.42688261  0.86915102     0.05500
C1159       C  0.04449467  0.44797672  0.84470741    -0.06800
C1160       C  0.03448343  0.43643542  0.81595057    -0.07500
C1161       C  0.02902107  0.40414051  0.81164064    -0.02100
C1162       C  0.03903455  0.38291101  0.83501074     0.04700
N1163       N  0.03533608  0.34974031  0.83150338     0.67200
H1164       H  0.05683964  0.37788891  0.88154256     0.16100
H1165       H  0.02666703  0.45310048  0.79839099     0.15800
N1166       N  0.04571258  0.48120452  0.84911513     0.74900
O1167       O  0.05839335  0.33359841  0.82249121    -0.38500
O1168       O  0.01300180  0.33613081  0.84517307    -0.38500
O1169       O  0.06815510  0.49644810  0.83749234    -0.39200
O1170       O  0.02097235  0.49566971  0.85633140    -0.39200
C1171       C  0.79817576  0.44353082  0.95615669    -0.11500
C1172       C  0.82321522  0.42244826  0.95795493     0.05500
C1173       C  0.81792903  0.39128391  0.96750120    -0.06800
C1174       C  0.78796939  0.38201654  0.97689416    -0.07500
C1175       C  0.76313862  0.40383589  0.97780936    -0.02100
C1176       C  0.76833300  0.43466020  0.96625435     0.04700
N1177       N  0.74435745  0.45806796  0.96707345     0.67200
H1178       H  0.80205107  0.46732701  0.94784790     0.16100
H1179       H  0.78492977  0.35871820  0.98682561     0.15800
N1180       N  0.84350006  0.36972071  0.97012614     0.74900
O1181       O  0.74431086  0.47763205  0.98903932    -0.38500
O1182       O  0.73063201  0.46524329  0.94203820    -0.38500
O1183       O  0.86285867  0.37302157  0.99196223    -0.39200
O1184       O  0.85101429  0.35326549  0.94696625    -0.39200
C1185       C  0.90490236  0.44663949  0.85096710    -0.11500
C1186       C  0.90019170  0.42278867  0.87301623     0.05500
C1187       C  0.90063768  0.39112158  0.86298112    -0.06800
C1188       C  0.90941026  0.38395234  0.83240992    -0.07500
C1189       C  0.91828041  0.40768545  0.81150190    -0.02100
C1190       C  0.91341724  0.43945175  0.82032358     0.04700
N1191       N  0.92009863  0.46480451  0.79941742     0.67200
H1192       H  0.90280936  0.47106704  0.85778987     0.16100
H1193       H  0.91326422  0.35951687  0.82635502     0.15800
N1194       N  0.89508521  0.36568733  0.88408796     0.74900
O1195       O  0.89774033  0.47737609  0.78475303    -0.38500
O1196       O  0.94493793  0.48026311  0.80304565    -0.38500
O1197       O  0.87006736  0.35030035  0.88155788    -0.39200
O1198       O  0.91807875  0.35308975  0.89771587    -0.39200
C1199       C  0.90256662  0.44497577  0.20691025    -0.11500
C1200       C  0.90220283  0.42264735  0.18289122     0.05500
C1201       C  0.90689063  0.39054525  0.19037947    -0.06800
C1202       C  0.91533801  0.38181786  0.22052121    -0.07500
C1203       C  0.91952207  0.40457084  0.24339336    -0.02100
C1204       C  0.91044287  0.43580264  0.23736042     0.04700
N1205       N  0.91196185  0.45850741  0.26170294     0.67200
H1206       H  0.89713070  0.46940196  0.20193023     0.16100
H1207       H  0.92258412  0.35773136  0.22496155     0.15800
N1208       N  0.90597629  0.36671424  0.16714233     0.74900
O1209       O  0.93614439  0.47514637  0.26445517    -0.38500
O1210       O  0.89360402  0.45586398  0.28456824    -0.38500
O1211       O  0.93129722  0.35807389  0.15473234    -0.39200
O1212       O  0.88294185  0.34828171  0.16668437    -0.39200
C1213       C  0.79901100  0.43739116  0.10604601    -0.11500
C1214       C  0.82538986  0.41940558  0.09873234     0.05500
C1215       C  0.82158219  0.38941573  0.08585565    -0.06800
C1216       C  0.79167989  0.37908941  0.07752171    -0.07500
C1217       C  0.76526493  0.39849423  0.08185173    -0.02100
C1218       C  0.76906271  0.42716519  0.09786540     0.04700
N1219       N  0.74292177  0.44671694  0.10509835     0.67200
H1220       H  0.80173446  0.45968272  0.11783434     0.16100
H1221       H  0.78946362  0.35726914  0.06479293     0.15800
N1222       N  0.84818456  0.36983247  0.08030897     0.74900
O1223       O  0.73121853  0.44482068  0.13200714    -0.38500
O1224       O  0.73850589  0.47144690  0.08931053    -0.38500
O1225       O  0.85848984  0.35280559  0.10215967    -0.39200
O1226       O  0.86572367  0.37585751  0.05745670    -0.39200
C1227       C  0.03785858  0.75543016  0.21717131    -0.11500
C1228       C  0.03162803  0.73257480  0.23996309     0.05500
C1229       C  0.03867951  0.70070504  0.23322073    -0.06800
C1230       C  0.04751639  0.69211124  0.20303087    -0.07500
C1231       C  0.04988064  0.71469484  0.17933013    -0.02100
C1232       C  0.04644571  0.74678786  0.18694853     0.04700
N1233       N  0.04847858  0.77074214  0.16362200     0.67200
H1234       H  0.03190209  0.77982208  0.22155570     0.16100
H1235       H  0.05163243  0.66751715  0.19784635     0.15800
N1236       N  0.03348314  0.67638046  0.25571934     0.74900
O1237       O  0.02412943  0.77842204  0.14885092    -0.38500
O1238       O  0.07120151  0.78954687  0.16418802    -0.38500
O1239       O  0.00917560  0.65979285  0.25370298    -0.39200
O1240       O  0.05651754  0.66580235  0.27084943    -0.39200
C1241       C  0.17413284  0.74441325  0.08543504    -0.11500
C1242       C  0.19496752  0.71929312  0.08097842     0.05500
C1243       C  0.18573422  0.68880467  0.09057759    -0.06800
C1244       C  0.15487198  0.68345939  0.10008676    -0.07500
C1245       C  0.13307458  0.70809626  0.10073862    -0.02100
C1246       C  0.14336332  0.73909929  0.09499912     0.04700
N1247       N  0.12219193  0.76512097  0.09566509     0.67200
H1248       H  0.18055215  0.76790809  0.07789804     0.16100
H1249       H  0.14764780  0.65977512  0.10610832     0.15800
N1250       N  0.20672087  0.66267206  0.08878978     0.74900
O1251       O  0.12285535  0.78349605  0.11859085    -0.38500
O1252       O  0.11023392  0.77459802  0.07046027    -0.38500
O1253       O  0.21936163  0.65273123  0.11349099    -0.39200
O1254       O  0.20519749  0.64457926  0.06568292    -0.39200
C1255       C  0.90231343  0.73776127  0.18727056    -0.11500
C1256       C  0.90028611  0.70504327  0.18386960     0.05500
C1257       C  0.90659648  0.68554134  0.20977696    -0.06800
C1258       C  0.91615800  0.69901999  0.23787141    -0.07500
C1259       C  0.92196084  0.73149139  0.23999115    -0.02100
C1260       C  0.91347949  0.75108521  0.21473328     0.04700
N1261       N  0.91994789  0.78402353  0.21491039     0.67200
H1262       H  0.89706928  0.75305774  0.16766434     0.16100
H1263       H  0.92329536  0.68359873  0.25677519     0.15800
N1264       N  0.90546635  0.65206505  0.20758834     0.74900
O1265       O  0.94501802  0.79373027  0.20277495    -0.38500
O1266       O  0.89760191  0.80309506  0.21851802    -0.38500
O1267       O  0.93077730  0.63700156  0.20484276    -0.39200
O1268       O  0.88163804  0.63787696  0.21765878    -0.39200
C1269       C  0.79320841  0.68724943  0.10647096    -0.11500
C1270       C  0.81970513  0.70642517  0.10255603     0.05500
C1271       C  0.81549689  0.73793498  0.09281770    -0.06800
C1272       C  0.78587123  0.74867883  0.08410058    -0.07500
C1273       C  0.76009981  0.72854633  0.08482756    -0.02100
C1274       C  0.76338576  0.69843664  0.09810285     0.04700
N1275       N  0.73654301  0.67880309  0.10149622     0.67200
H1276       H  0.79575304  0.66362176  0.11573607     0.16100
H1277       H  0.78364788  0.77181315  0.07354287     0.15800
N1278       N  0.84131465  0.75890280  0.08982064     0.74900
O1279       O  0.72886115  0.66093221  0.07947655    -0.38500
O1280       O  0.71644975  0.68570245  0.12188288    -0.38500
O1281       O  0.85270182  0.76377226  0.06313897    -0.39200
O1282       O  0.84585007  0.77891484  0.11088655    -0.39200
C1283       C  0.89703422  0.69561882  0.84992131    -0.11500
C1284       C  0.89937585  0.71502156  0.87624267     0.05500
C1285       C  0.90693180  0.74705529  0.87201881    -0.06800
C1286       C  0.91454693  0.75845395  0.84244848    -0.07500
C1287       C  0.91599351  0.73820822  0.81695400    -0.02100
C1288       C  0.90493596  0.70727441  0.82024324     0.04700
N1289       N  0.90426363  0.68709289  0.79378160     0.67200
H1290       H  0.88965035  0.67139210  0.85252784     0.16100
H1291       H  0.92367179  0.78214010  0.84027075     0.15800
N1292       N  0.90994003  0.76773203  0.89787214     0.74900
O1293       O  0.92800663  0.67065487  0.78743773    -0.38500
O1294       O  0.88414624  0.69212404  0.77287063    -0.38500
O1295       O  0.93678893  0.77243269  0.90898721    -0.39200
O1296       O  0.88872466  0.78779335  0.90265949    -0.39200
C1297       C  0.79630653  0.68536573  0.96032787    -0.11500
C1298       C  0.81942639  0.70856209  0.95858315     0.05500
C1299       C  0.81121273  0.74008618  0.96463884    -0.06800
C1300       C  0.78084347  0.74760967  0.97407457    -0.07500
C1301       C  0.75841912  0.72409968  0.97881467    -0.02100
C1302       C  0.76596298  0.69281555  0.97035593     0.04700
N1303       N  0.74376374  0.66801658  0.97387279     0.67200
H1304       H  0.80204189  0.66122954  0.95459546     0.16100
H1305       H  0.77596326  0.77148727  0.98143002     0.15800
N1306       N  0.83420703  0.76432553  0.96449513     0.74900
O1307       O  0.72812578  0.65968824  0.95047385    -0.38500
O1308       O  0.74627497  0.64930803  0.99664969    -0.38500
O1309       O  0.83359731  0.78480279  0.94314551    -0.39200
O1310       O  0.84861302  0.77021401  0.98937885    -0.39200
C1311       C  0.15636702  0.68218964  0.95434148    -0.11500
C1312       C  0.13373406  0.70616265  0.95336672     0.05500
C1313       C  0.14281077  0.73726754  0.96003668    -0.06800
C1314       C  0.17315269  0.74340539  0.97021125    -0.07500
C1315       C  0.19498210  0.71909220  0.97406280    -0.02100
C1316       C  0.18721445  0.68849396  0.96388484     0.04700
N1317       N  0.21034768  0.66389563  0.96358160     0.67200
H1318       H  0.14992999  0.65857890  0.94755947     0.16100
H1319       H  0.17859467  0.76684238  0.97837714     0.15800
N1320       N  0.12079461  0.76254867  0.95958832     0.74900
O1321       O  0.20226550  0.63537627  0.96485281    -0.38500
O1322       O  0.23852051  0.67046933  0.95780811    -0.38500
O1323       O  0.10748789  0.77009134  0.98468698    -0.39200
O1324       O  0.12227051  0.78252807  0.93781775    -0.39200
C1325       C  0.02668225  0.75855296  0.84508679    -0.11500
C1326       C  0.02526923  0.73952989  0.81849949     0.05500
C1327       C  0.03865603  0.70925028  0.81960245    -0.06800
C1328       C  0.05019521  0.69716240  0.84789054    -0.07500
C1329       C  0.04905861  0.71536034  0.87505933    -0.02100
C1330       C  0.03840102  0.74664571  0.87322553     0.04700
N1331       N  0.03714789  0.76567109  0.90048823     0.67200
H1332       H  0.01558364  0.78151563  0.84485380     0.16100
H1333       H  0.05925188  0.67334697  0.84885979     0.15800
N1334       N  0.03799332  0.68978835  0.79262008     0.74900
O1335       O  0.06076025  0.78151208  0.90811740    -0.38500
O1336       O  0.01538716  0.76162933  0.91992390    -0.38500
O1337       O  0.05589402  0.69610324  0.77009996    -0.39200
O1338       O  0.01507104  0.67173724  0.78835930    -0.39200
loop_ 
_geom_bond_atom_site_label_1 
_geom_bond_atom_site_label_2 
_geom_bond_distance 
_geom_bond_site_symmetry_2 
_ccdc_geom_bond_type 
C1            C2   1.399       .  A
C1            C6   1.411       .  A
C1         C1312   1.485       .  S
C2            C3   1.399       .  A
C2            H7   1.084       .  S
C3            C4   1.411       .  A
C3         C1329   1.481       .  S
C4            C5   1.411       .  A
C4            H8   1.084       .  S
C5            C6   1.412       .  A
C5           C75   1.488       .  S
C6            H9   1.084       .  S
C10          C11   1.395       .  A
C10          C15   1.411       .  A
C10        C1298   1.481       .  S
C11          C12   1.395       .  A
C11          H16   1.085       .  S
C12          C13   1.414       .  A
C12        C1284   1.483       .  S
C13          C14   1.415       .  A
C13          H17   1.083       .  S
C14          C15   1.412       .  A
C14          C81   1.492       .  S
C15          H18   1.084       .  S
C19          C20   1.411       .  A
C19          C24   1.397       .  A
C19        C1256   1.482       .  S
C20          C21   1.414       .  A
C20          H25   1.084       .  S
C21          C22   1.416       .  A
C21          C98   1.491       .  S
C22          C23   1.414       .  A
C22          H26   1.084       .  S
C23          C24   1.393       .  A
C23        C1270   1.483       .  S
C24          H27   1.085       .  S
C28          C29   1.416       .  A
C28          C33   1.394       .  A
C28        C1231   1.482       .  S
C29          C30   1.414       .  A
C29          H34   1.084       .  S
C30          C31   1.412       .  A
C30         C104   1.496       .  S
C31          C32   1.413       .  A
C31          H35   1.084       .  S
C32          C33   1.394       .  A
C32        C1245   1.480       .  S
C33          H36   1.085       .  S
C37          C38   1.391       .  A
C37          C42   1.414       .  A
C37        C1200   1.479       .  S
C38          C39   1.390       .  A
C38          H43   1.085       .  S
C39          C40   1.410       .  A
C39        C1214   1.471       .  S
C40          C41   1.411       .  A
C40          H44   1.084       .  S
C41          C42   1.415       .  A
C41         C101   1.490       .  S
C42          H45   1.083       .  S
C46          C47   1.408       .  A
C46          C51   1.393       .  A
C46        C1172   1.472       .  S
C47          C48   1.409       .  A
C47          H52   1.084       .  S
C48          C49   1.416       .  A
C48          C78   1.493       .  S
C49          C50   1.418       .  A
C49          H53   1.083       .  S
C50          C51   1.393       .  A
C50        C1186   1.486       .  S
C51          H54   1.085       .  S
C55          C56   1.410       .  A
C55          C60   1.397       .  A
C55        C1144   1.483       .  S
C56          C57   1.410       .  A
C56          H61   1.083       .  S
C57          C58   1.413       .  A
C57          C84   1.486       .  S
C58          C59   1.412       .  A
C58          H62   1.083       .  S
C59          C60   1.396       .  A
C59        C1158   1.484       .  S
C60          H63   1.085       .  S
C64          C65   1.396       .  A
C64          C69   1.414       .  A
C64        C1116   1.487       .  S
C65          C66   1.398       .  A
C65          H70   1.085       .  S
C66          C67   1.412       .  A
C66        C1130   1.483       .  S
C67          C68   1.412       .  A
C67          H71   1.084       .  S
C68          C69   1.416       .  A
C68          C95   1.491       .  S
C69          H72   1.084       .  S
O73         Zr85   2.434       .  S
O73          C75   1.286       .  A
O74        Zr111   2.487   1_456  S
O74          C75   1.299       .  A
O76         Zr88   2.447       .  S
O76          C78   1.289       .  A
O77        Zr112   2.485   1_556  S
O77          C78   1.299       .  A
O79         Zr88   2.450       .  S
O79          C81   1.289       .  A
O80        Zr111   2.478   1_556  S
O80          C81   1.297       .  A
O82         Zr85   2.433       .  S
O82          C84   1.285       .  A
O83        Zr112   2.483   1_456  S
O83          C84   1.298       .  A
Zr85         O86   2.437       .  S
Zr85         O87   2.437       .  S
Zr85         O91   2.373   1_455  S
Zr85         O92   2.373   1_455  S
Zr85        O115   2.374   1_556  S
Zr85        O117   2.374   1_556  S
O86         H129   0.990       .  S
O87         H128   0.990       .  S
O87         H132   0.990       .  S
Zr88         O89   2.437       .  S
Zr88         O90   2.433       .  S
Zr88         O92   2.373       .  S
Zr88         O91   2.372       .  S
Zr88        O116   2.373   1_556  S
Zr88        O118   2.379   1_556  S
O89         H130   0.990       .  S
O89         H133   0.990       .  S
O90         H123   0.990   1_556  S
O91        Zr111   2.398   1_556  S
O92        Zr112   2.402   1_556  S
O92         H119   0.949       .  S
O93        Zr105   2.434       .  S
O93          C95   1.285       .  A
O94        Zr112   2.494   1_455  S
O94          C95   1.301       .  A
O96        Zr108   2.432       .  S
O96          C98   1.285       .  A
O97        Zr111   2.491       .  S
O97          C98   1.300       .  A
O99        Zr108   2.439       .  S
O99         C101   1.286       .  A
O100       Zr112   2.484       .  S
O100        C101   1.298       .  A
O102       Zr105   2.450       .  S
O102        C104   1.289       .  A
O103       Zr111   2.484   1_455  S
O103        C104   1.298       .  A
Zr105       O106   2.436       .  S
Zr105       O107   2.435       .  S
Zr105       O113   2.378   1_455  S
Zr105       O114   2.372   1_455  S
Zr105       O117   2.369       .  S
Zr105       O115   2.378       .  S
O106        H126   0.990       .  S
O106        H131   0.990       .  S
O107        H127   0.990       .  S
Zr108       O109   2.434       .  S
Zr108       O110   2.435       .  S
Zr108       O114   2.374       .  S
Zr108       O113   2.368       .  S
Zr108       O118   2.373       .  S
Zr108       O116   2.374       .  S
O109        H125   0.990       .  S
O110        H124   0.990       .  S
O110        H134   0.990       .  S
Zr111       O114   2.394       .  S
Zr111       O116   2.400       .  S
Zr111       O117   2.400   1_655  S
Zr112       O113   2.399       .  S
Zr112       O115   2.400   1_655  S
Zr112       O118   2.398       .  S
O113        H121   0.967       .  S
O116        H120   0.977       .  S
O117        H122   0.971       .  S
C135        C136   1.393       .  A
C135        C140   1.407   1_565  A
C135       C1091   1.470       .  S
C136        C137   1.392       .  A
C136        H141   1.085       .  S
C137        C138   1.413       .  A
C137       C1105   1.479       .  S
C138        C139   1.411       .  A
C138        H142   1.084       .  S
C139        C140   1.408   1_565  A
C139        C209   1.484   1_565  S
C140        H143   1.084       .  S
C144        C145   1.393       .  A
C144        C149   1.409   1_565  A
C144       C1074   1.475       .  S
C145        C146   1.394       .  A
C145        H150   1.085       .  S
C146        C147   1.411       .  A
C146       C1060   1.477       .  S
C147        C148   1.411       .  A
C147        H151   1.084       .  S
C148        C149   1.411   1_565  A
C148        C215   1.482   1_565  S
C149        H152   1.084       .  S
C153        C154   1.391       .  A
C153        C158   1.410       .  A
C153       C1032   1.472       .  S
C154        C155   1.391       .  A
C154        H159   1.085       .  S
C155        C156   1.414       .  A
C155       C1046   1.480       .  S
C156        C157   1.414       .  A
C156        H160   1.084       .  S
C157        C158   1.410       .  A
C157        C232   1.489       .  S
C158        H161   1.084       .  S
C162        C163   1.407       .  A
C162        C167   1.392       .  A
C162       C1004   1.473       .  S
C163        C164   1.409       .  A
C163        H168   1.084       .  S
C164        C165   1.414       .  A
C164        C238   1.484       .  S
C165        C166   1.412       .  A
C165        H169   1.083       .  S
C166        C167   1.396       .  A
C166       C1021   1.482       .  S
C167        H170   1.085       .  S
C171        C172   1.414       .  A
C171        C176   1.395       .  A
C171        C979   1.485       .  S
C172        C173   1.417       .  A
C172        H177   1.083       .  S
C173        C174   1.408       .  A
C173        C235   1.486       .  S
C174        C175   1.408       .  A
C174        H178   1.084       .  S
C175        C176   1.390       .  A
C175        C990   1.472       .  S
C176        H179   1.085       .  S
C180        C181   1.394       .  A
C180        C185   1.416       .  A
C180        C948   1.486       .  S
C181        C182   1.391       .  A
C181        H186   1.085       .  S
C182        C183   1.412       .  A
C182        C962   1.479       .  S
C183        C184   1.415       .  A
C183        H187   1.084       .  S
C184        C185   1.417       .  A
C184        C212   1.496   1_565  S
C185        H188   1.083   1_565  S
C189        C190   1.397       .  A
C189        C194   1.414       .  A
C189        C920   1.487       .  S
C190        C191   1.394       .  A
C190        H195   1.085       .  S
C191        C192   1.410       .  A
C191        C934   1.480       .  S
C192        C193   1.412       .  A
C192        H196   1.084       .  S
C193        C194   1.414       .  A
C193        C218   1.489   1_565  S
C194        H197   1.083   1_565  S
C198        C199   1.413       .  A
C198        C203   1.391       .  A
C198        C909   1.477       .  S
C199        C200   1.414       .  A
C199        H204   1.084       .  S
C200        C201   1.404       .  A
C200        C229   1.480       .  S
C201        C202   1.404       .  A
C201        H205   1.084       .  S
C202        C203   1.389       .  A
C202        C895   1.462       .  S
C203        H206   1.085       .  S
O207       Zr219   2.446       .  S
O207        C209   1.288       .  A
O208       Zr245   2.468       .  S
O208        C209   1.295       .  A
O210       Zr222   2.447   1_565  S
O210        C212   1.288   1_565  A
O211       Zr246   2.486   1_556  S
O211        C212   1.299       .  A
O213       Zr222   2.430       .  S
O213        C215   1.285       .  A
O214       Zr245   2.476   1_556  S
O214        C215   1.297       .  A
O216       Zr219   2.437   1_565  S
O216        C218   1.286   1_565  A
O217       Zr246   2.485       .  S
O217        C218   1.299       .  A
Zr219       O220   2.435   1_545  S
Zr219       O221   2.437       .  S
Zr219       O225   2.373       .  S
Zr219       O226   2.376       .  S
Zr219       O249   2.375       .  S
Zr219       O251   2.369       .  S
O220        H263   0.990       .  S
O221        H262   0.990       .  S
O221        H266   0.990   1_545  S
Zr222       O223   2.437   1_545  S
Zr222       O224   2.435       .  S
Zr222       O226   2.372   1_556  S
Zr222       O225   2.376   1_556  S
Zr222       O250   2.373       .  S
Zr222       O252   2.372       .  S
O223        H264   0.990   1_556  S
O223        H267   0.990       .  S
O224        H257   0.990       .  S
O225       Zr245   2.396       .  S
O226       Zr246   2.398       .  S
O226        H253   0.963   1_545  S
O227       Zr239   2.441       .  S
O227        C229   1.287       .  A
O228       Zr246   2.468       .  S
O228        C229   1.295       .  A
O230       Zr242   2.444       .  S
O230        C232   1.288       .  A
O231       Zr245   2.477   1_556  S
O231        C232   1.297       .  A
O233       Zr242   2.437       .  S
O233        C235   1.287       .  A
O234       Zr246   2.480   1_556  S
O234        C235   1.298       .  A
O236       Zr239   2.437       .  S
O236        C238   1.287       .  A
O237       Zr245   2.475       .  S
O237        C238   1.296       .  A
Zr239       O240   2.436       .  S
Zr239       O241   2.435       .  S
Zr239       O247   2.367       .  S
Zr239       O248   2.376       .  S
Zr239       O251   2.369       .  S
Zr239       O249   2.376       .  S
O240        H260   0.990       .  S
O240        H265   0.990       .  S
O241        H261   0.990       .  S
Zr242       O243   2.435       .  S
Zr242       O244   2.435       .  S
Zr242       O248   2.374   1_556  S
Zr242       O247   2.366   1_556  S
Zr242       O252   2.379       .  S
Zr242       O250   2.370       .  S
O243        H259   0.990   1_556  S
O244        H258   0.990       .  S
O244        H268   0.990       .  S
Zr245       O248   2.394       .  S
Zr245       O250   2.395   1_554  S
Zr245       O251   2.398       .  S
Zr246       O247   2.400       .  S
Zr246       O249   2.399       .  S
Zr246       O252   2.394   1_554  S
O247        H255   0.965       .  S
O250        H254   0.966       .  S
O251        H256   0.964       .  S
C269        C270   1.389       .  A
C269        C274   1.414   1_565  A
C269        C867   1.479       .  S
C270        C271   1.393       .  A
C270        H275   1.085       .  S
C271        C272   1.410       .  A
C271        C881   1.475       .  S
C272        C273   1.412       .  A
C272        H276   1.084       .  S
C273        C274   1.415   1_565  A
C273        C349   1.490   1_565  S
C274        H277   1.084       .  S
C278        C279   1.410   1_565  A
C278        C283   1.387       .  A
C278        C853   1.471       .  S
C279        C280   1.411   1_545  A
C279        H284   1.084       .  S
C280        C281   1.412       .  A
C280        C343   1.485   1_565  S
C281        C282   1.410       .  A
C281        H285   1.084       .  S
C282        C283   1.391       .  A
C282        C836   1.472       .  S
C283        H286   1.086       .  S
C287        C288   1.396       .  A
C287        C292   1.416       .  A
C287        C811   1.486       .  S
C288        C289   1.395       .  A
C288        H293   1.085       .  S
C289        C290   1.418       .  A
C289        C825   1.488       .  S
C290        C291   1.415       .  A
C290        H294   1.084       .  S
C291        C292   1.416       .  A
C291        C372   1.502       .  S
C292        H295   1.083       .  S
C296        C297   1.413       .  A
C296        C301   1.391       .  A
C296        C780   1.477       .  S
C297        C298   1.412       .  A
C297        H302   1.084       .  S
C298        C299   1.408       .  A
C298        C366   1.486       .  S
C299        C300   1.407       .  A
C299        H303   1.084       .  S
C300        C301   1.390       .  A
C300        C794   1.466       .  S
C301        H304   1.085       .  S
C305        C306   1.394       .  A
C305        C310   1.411       .  A
C305        C755   1.479       .  S
C306        C307   1.396       .  A
C306        H311   1.085       .  S
C307        C308   1.416       .  A
C307        C766   1.487       .  S
C308        C309   1.416       .  A
C308        H312   1.083       .  S
C309        C310   1.411       .  A
C309        C363   1.493       .  S
C310        H313   1.084       .  S
C314        C315   1.413   1_565  A
C314        C319   1.390       .  A
C314        C724   1.478       .  S
C315        C316   1.412   1_545  A
C315        H320   1.084       .  S
C316        C317   1.412       .  A
C316        C352   1.488   1_565  S
C317        C318   1.411       .  A
C317        H321   1.084       .  S
C318        C319   1.394       .  A
C318        C738   1.476       .  S
C319        H322   1.085       .  S
C323        C324   1.393       .  A
C323        C328   1.414   1_565  A
C323        C696   1.481       .  S
C324        C325   1.393       .  A
C324        H329   1.085       .  S
C325        C326   1.413       .  A
C325        C710   1.480       .  S
C326        C327   1.415       .  A
C326        H330   1.084       .  S
C327        C328   1.414   1_565  A
C327        C346   1.495   1_565  S
C328        H331   1.084       .  S
C332        C333   1.393       .  A
C332        C337   1.408       .  A
C332        C671   1.474       .  S
C333        C334   1.388       .  A
C333        H338   1.086       .  S
C334        C335   1.408       .  A
C334        C682   1.468       .  S
C335        C336   1.410       .  A
C335        H339   1.084       .  S
C336        C337   1.410       .  A
C336        C369   1.479       .  S
C337        H340   1.083       .  S
O341       Zr353   2.431       .  S
O341        C343   1.285       .  A
O342       Zr379   2.480       .  S
O342        C343   1.298       .  A
O344       Zr356   2.449       .  S
O344        C346   1.288       .  A
O345       Zr380   2.485   1_455  S
O345        C346   1.298       .  A
O347       Zr356   2.438       .  S
O347        C349   1.287       .  A
O348       Zr379   2.486   1_455  S
O348        C349   1.299       .  A
O350       Zr353   2.444       .  S
O350        C352   1.288       .  A
O351       Zr380   2.472       .  S
O351        C352   1.296       .  A
Zr353       O354   2.434   1_545  S
Zr353       O355   2.436       .  S
Zr353       O359   2.375       .  S
Zr353       O360   2.370       .  S
Zr353       O383   2.369       .  S
Zr353       O385   2.379       .  S
O354        H397   0.990       .  S
O355        H396   0.990       .  S
O355        H400   0.990       .  S
Zr356       O357   2.436   1_545  S
Zr356       O358   2.435       .  S
Zr356       O360   2.373   1_455  S
Zr356       O359   2.377   1_455  S
Zr356       O384   2.375       .  S
Zr356       O386   2.372       .  S
O357        H398   0.990       .  S
O357        H401   0.990       .  S
O358        H391   0.990       .  S
O359       Zr379   2.398       .  S
O360       Zr380   2.395       .  S
O360        H387   0.969       .  S
O361       Zr373   2.445       .  S
O361        C363   1.288       .  A
O362       Zr380   2.484       .  S
O362        C363   1.299       .  A
O364       Zr376   2.444       .  S
O364        C366   1.288       .  A
O365       Zr379   2.471   1_455  S
O365        C366   1.296       .  A
O367       Zr376   2.437       .  S
O367        C369   1.286       .  A
O368       Zr380   2.464   1_455  S
O368        C369   1.294       .  A
O370       Zr373   2.452       .  S
O370        C372   1.289       .  A
O371       Zr379   2.494       .  S
O371        C372   1.300       .  A
Zr373       O374   2.437       .  S
Zr373       O375   2.435       .  S
Zr373       O381   2.377       .  S
Zr373       O382   2.372       .  S
Zr373       O385   2.376       .  S
Zr373       O383   2.378       .  S
O374        H394   0.990       .  S
O374        H399   0.990       .  S
O375        H395   0.990       .  S
Zr376       O377   2.435       .  S
Zr376       O378   2.436       .  S
Zr376       O382   2.372   1_455  S
Zr376       O381   2.375   1_455  S
Zr376       O386   2.377       .  S
Zr376       O384   2.372       .  S
O377        H393   0.989   1_455  S
O378        H392   0.990       .  S
O378        H402   0.990       .  S
Zr379       O382   2.395       .  S
Zr379       O384   2.402   1_655  S
Zr379       O385   2.400       .  S
Zr380       O381   2.404       .  S
Zr380       O383   2.395       .  S
Zr380       O386   2.397   1_655  S
O381        H389   0.964       .  S
O384        H388   0.969       .  S
O385        H390   0.968       .  S
C403        C404   1.391       .  A
C403        C408   1.406       .  A
C403       C1203   1.470       .  S
C404        C405   1.389   1_655  A
C404        H423   1.088       .  S
C405        C406   1.412       .  A
C405       C1119   1.481       .  S
C406        C407   1.425   1_455  A
C406        C413   1.403       .  A
C407        C408   1.419       .  A
C407        C412   1.414       .  A
C408        C409   1.405       .  A
C409        C410   1.394       .  A
C409        H419   1.083       .  S
C410        C411   1.403       .  A
C410        H420   1.083       .  S
C411        C412   1.425       .  A
C411        C418   1.414       .  A
C412        C415   1.418   1_655  A
C413        C414   1.395       .  A
C413        H421   1.083       .  S
C414        C415   1.406       .  A
C414        H422   1.083       .  S
C415        C416   1.407       .  A
C416        C417   1.394   1_455  A
C416        C668   1.475       .  S
C417        C418   1.389       .  A
C417        H424   1.087       .  S
C418        C752   1.482       .  S
C425        C426   1.388       .  A
C425        C430   1.415       .  A
C425        C892   1.479       .  S
C426        C427   1.392       .  A
C426        H445   1.088       .  S
C427        C428   1.416       .  A
C427        C923   1.485       .  S
C428        C429   1.426       .  A
C428        C435   1.405       .  A
C429        C430   1.424       .  A
C429        C434   1.421       .  A
C430        C431   1.405       .  A
C431        C432   1.400       .  A
C431        H441   1.083       .  S
C432        C433   1.405       .  A
C432        H442   1.083       .  S
C433        C434   1.424       .  A
C433        C440   1.417       .  A
C434        C437   1.422       .  A
C435        C436   1.400       .  A
C435        H443   1.083   1_545  S
C436        C437   1.406       .  A
C436        H444   1.083   1_545  S
C437        C438   1.418       .  A
C438        C439   1.394       .  A
C438        C699   1.484       .  S
C439        C440   1.393       .  A
C439        H446   1.087       .  S
C440        C685   1.485       .  S
C447        C448   1.390   1_556  A
C447        C452   1.412       .  A
C447       C1147   1.481       .  S
C448        C449   1.389       .  A
C448        H467   1.087       .  S
C449        C450   1.412       .  A
C449       C1133   1.480       .  S
C450        C451   1.425       .  A
C450        C457   1.404       .  A
C451        C452   1.425   1_554  A
C451        C456   1.418       .  A
C452        C453   1.404       .  A
C453        C454   1.396       .  A
C453        H463   1.083       .  S
C454        C455   1.405       .  A
C454        H464   1.083       .  S
C455        C456   1.421   1_556  A
C455        C462   1.412       .  A
C456        C459   1.422       .  A
C457        C458   1.396       .  A
C457        H465   1.083       .  S
C458        C459   1.405       .  A
C458        H466   1.083       .  S
C459        C460   1.415       .  A
C460        C461   1.392       .  A
C460        C906   1.483       .  S
C461        C462   1.398   1_554  A
C461        H468   1.086       .  S
C462        C976   1.488       .  S
C469        C470   1.390       .  A
C469        C474   1.417       .  A
C469       C1088   1.484       .  S
C470        C471   1.395       .  A
C470        H489   1.087       .  S
C471        C472   1.412       .  A
C471       C1018   1.483       .  S
C472        C473   1.421       .  A
C472        C479   1.405       .  A
C473        C474   1.423       .  A
C473        C478   1.418       .  A
C474        C475   1.405       .  A
C475        C476   1.400       .  A
C475        H485   1.083   1_545  S
C476        C477   1.406       .  A
C476        H486   1.083   1_545  S
C477        C478   1.424       .  A
C477        C484   1.417       .  A
C478        C481   1.422       .  A
C479        C480   1.396       .  A
C479        H487   1.083       .  S
C480        C481   1.405       .  A
C480        H488   1.083       .  S
C481        C482   1.410       .  A
C482        C483   1.392       .  A
C482        C769   1.478       .  S
C483        C484   1.391       .  A
C483        H490   1.087       .  S
C484        C727   1.482       .  S
C491        C492   1.389       .  A
C491        C496   1.413       .  A
C491       C1259   1.482       .  S
C492        C493   1.389   1_655  A
C492        H511   1.087       .  S
C493        C494   1.419       .  A
C493       C1228   1.484       .  S
C494        C495   1.425   1_455  A
C494        C501   1.406       .  A
C495        C496   1.425       .  A
C495        C500   1.420       .  A
C496        C497   1.404       .  A
C497        C498   1.397       .  A
C497        H507   1.083       .  S
C498        C499   1.405       .  A
C498        H508   1.083       .  S
C499        C500   1.422       .  A
C499        C506   1.411       .  A
C500        C503   1.425   1_655  A
C501        C502   1.402       .  A
C501        H509   1.083       .  S
C502        C503   1.405       .  A
C502        H510   1.083       .  S
C503        C504   1.420       .  A
C504        C505   1.391   1_455  A
C504        C713   1.485       .  S
C505        C506   1.393       .  A
C505        H512   1.087       .  S
C506        C741   1.481       .  S
C513        C514   1.388       .  A
C513        C518   1.413       .  A
C513        C951   1.474       .  S
C514        C515   1.385       .  A
C514        H533   1.088       .  S
C515        C516   1.412       .  A
C515        C993   1.475       .  S
C516        C517   1.424       .  A
C516        C523   1.404       .  A
C517        C518   1.423       .  A
C517        C522   1.417       .  A
C518        C519   1.404       .  A
C519        C520   1.399       .  A
C519        H529   1.083   1_545  S
C520        C521   1.406       .  A
C520        H530   1.083   1_545  S
C521        C522   1.422       .  A
C521        C528   1.417       .  A
C522        C525   1.421       .  A
C523        C524   1.399       .  A
C523        H531   1.083       .  S
C524        C525   1.406       .  A
C524        H532   1.083       .  S
C525        C526   1.414       .  A
C526        C527   1.393       .  A
C526        C797   1.481       .  S
C527        C528   1.394       .  A
C527        H534   1.086       .  S
C528        C864   1.484       .  S
C535        C536   1.391   1_455  A
C535        C540   1.415       .  A
C535       C1161   1.488       .  S
C536        C537   1.390       .  A
C536        H555   1.087       .  S
C537        C538   1.422       .  A
C537       C1189   1.488       .  S
C538        C539   1.426       .  A
C538        C545   1.406       .  A
C539        C540   1.426   1_655  A
C539        C544   1.424       .  A
C540        C541   1.404       .  A
C541        C542   1.397       .  A
C541        H551   1.083       .  S
C542        C543   1.406       .  A
C542        H552   1.083       .  S
C543        C544   1.422   1_455  A
C543        C550   1.417       .  A
C544        C547   1.424       .  A
C545        C546   1.403       .  A
C545        H553   1.083       .  S
C546        C547   1.407       .  A
C546        H554   1.083       .  S
C547        C548   1.423       .  A
C548        C549   1.396       .  A
C548        C808   1.492       .  S
C549        C550   1.395   1_655  A
C549        H556   1.085       .  S
C550        C783   1.487       .  S
C557        C558   1.396   1_556  A
C557        C562   1.416       .  A
C557       C1315   1.487       .  S
C558        C559   1.398       .  A
C558        H577   1.086       .  S
C559        C560   1.419       .  A
C559       C1242   1.487       .  S
C560        C561   1.422       .  A
C560        C567   1.407       .  A
C561        C562   1.421   1_554  A
C561        C566   1.420       .  A
C562        C563   1.407       .  A
C563        C564   1.399       .  A
C563        H573   1.083       .  S
C564        C565   1.404       .  A
C564        H574   1.083       .  S
C565        C566   1.424   1_556  A
C565        C572   1.417       .  A
C566        C569   1.422       .  A
C567        C568   1.399       .  A
C567        H575   1.083       .  S
C568        C569   1.404       .  A
C568        H576   1.083       .  S
C569        C570   1.413       .  A
C570        C571   1.391       .  A
C570        C937   1.481       .  S
C571        C572   1.391   1_554  A
C571        H578   1.088       .  S
C572        C965   1.481       .  S
C579        C580   1.395       .  A
C579        C584   1.420       .  A
C579       C1175   1.486   1_554  S
C580        C581   1.394       .  A
C580        H599   1.087       .  S
C581        C582   1.417       .  A
C581       C1217   1.485       .  S
C582        C583   1.424       .  A
C582        C589   1.405       .  A
C583        C584   1.422       .  A
C583        C588   1.421       .  A
C584        C585   1.407   1_554  A
C585        C586   1.404       .  A
C585        H595   1.083       .  S
C586        C587   1.405       .  A
C586        H596   1.083       .  S
C587        C588   1.426   1_556  A
C587        C594   1.421       .  A
C588        C591   1.423       .  A
C589        C590   1.400       .  A
C589        H597   1.083       .  S
C590        C591   1.405       .  A
C590        H598   1.083       .  S
C591        C592   1.412       .  A
C592        C593   1.389       .  A
C592       C1007   1.478       .  S
C593        C594   1.389   1_554  A
C593        H600   1.088       .  S
C594       C1035   1.486       .  S
C601        C602   1.391       .  A
C601        C606   1.410       .  A
C601       C1287   1.472       .  S
C602        C603   1.387       .  A
C602        H621   1.088       .  S
C603        C604   1.411       .  A
C603       C1326   1.481   1_655  S
C604        C605   1.426       .  A
C604        C611   1.402   1_655  A
C605        C606   1.421       .  A
C605        C610   1.417       .  A
C606        C607   1.405       .  A
C607        C608   1.399       .  A
C607        H617   1.083       .  S
C608        C609   1.405       .  A
C608        H618   1.083       .  S
C609        C610   1.426       .  A
C609        C616   1.418       .  A
C610        C613   1.420       .  A
C611        C612   1.395       .  A
C611        H619   1.083       .  S
C612        C613   1.406   1_455  A
C612        H620   1.083       .  S
C613        C614   1.409       .  A
C614        C615   1.393       .  A
C614        C878   1.479   1_655  S
C615        C616   1.390       .  A
C615        H622   1.087       .  S
C616        C839   1.487       .  S
C623        C624   1.392       .  A
C623        C628   1.411       .  A
C623       C1077   1.481       .  S
C624        C625   1.392       .  A
C624        H643   1.087       .  S
C625        C626   1.423       .  A
C625       C1049   1.487       .  S
C626        C627   1.424       .  A
C626        C633   1.406       .  A
C627        C628   1.421       .  A
C627        C632   1.421       .  A
C628        C629   1.404       .  A
C629        C630   1.398       .  A
C629        H639   1.083   1_545  S
C630        C631   1.405       .  A
C630        H640   1.083   1_545  S
C631        C632   1.425       .  A
C631        C638   1.413       .  A
C632        C635   1.425       .  A
C633        C634   1.403       .  A
C633        H641   1.083       .  S
C634        C635   1.407       .  A
C634        H642   1.083       .  S
C635        C636   1.421       .  A
C636        C637   1.393       .  A
C636        C822   1.488       .  S
C637        C638   1.390       .  A
C637        H644   1.087       .  S
C638        C850   1.480       .  S
C645        C646   1.392       .  A
C645        C650   1.419       .  A
C645       C1301   1.486   1_554  S
C646        C647   1.394       .  A
C646        H665   1.087       .  S
C647        C648   1.409       .  A
C647       C1273   1.476       .  S
C648        C649   1.418       .  A
C648        C655   1.405       .  A
C649        C650   1.424       .  A
C649        C654   1.418       .  A
C650        C651   1.405   1_554  A
C651        C652   1.399       .  A
C651        H661   1.083       .  S
C652        C653   1.406   1_556  A
C652        H662   1.083       .  S
C653        C654   1.421       .  A
C653        C660   1.411       .  A
C654        C657   1.425       .  A
C655        C656   1.397       .  A
C655        H663   1.083       .  S
C656        C657   1.405       .  A
C656        H664   1.083       .  S
C657        C658   1.417       .  A
C658        C659   1.390       .  A
C658       C1102   1.483       .  S
C659        C660   1.393       .  A
C659        H666   1.087       .  S
C660       C1063   1.479   1_554  S
C667        C668   1.404       .  A
C667        C672   1.397       .  A
C667        H674   1.084       .  S
C668        C669   1.412       .  A
C669        C670   1.393       .  A
C669        N676   1.430       .  S
C670        C671   1.402       .  A
C670        H675   1.085       .  S
C671        C672   1.408       .  A
C672        N673   1.427       .  S
N673        O677   1.261       .  A
N673        O678   1.262       .  A
N676        O680   1.262       .  A
N676        O679   1.262       .  A
C681        C682   1.395       .  A
C681        C686   1.397       .  A
C681        H688   1.084       .  S
C682        C683   1.404       .  A
C683        C684   1.404       .  A
C683        N690   1.430       .  S
C684        C685   1.410       .  A
C684        H689   1.084       .  S
C685        C686   1.414       .  A
C686        N687   1.426       .  S
N687        O691   1.262       .  A
N687        O692   1.262       .  A
N690        O694   1.262       .  A
N690        O693   1.262       .  A
C695        C696   1.401       .  A
C695        C700   1.403   1_565  A
C695        H702   1.084       .  S
C696        C697   1.412       .  A
C697        C698   1.397   1_565  A
C697        N704   1.427       .  S
C698        C699   1.401       .  A
C698        H703   1.085       .  S
C699        C700   1.414       .  A
C700        N701   1.428       .  S
N701        O705   1.262       .  A
N701        O706   1.262   1_545  A
N704        O708   1.261       .  A
N704        O707   1.262   1_565  A
C709        C710   1.400       .  A
C709        C714   1.405       .  A
C709        H716   1.084       .  S
C710        C711   1.409       .  A
C711        C712   1.399       .  A
C711        N718   1.427       .  S
C712        C713   1.402       .  A
C712        H717   1.085       .  S
C713        C714   1.418       .  A
C714        N715   1.428       .  S
N715        O719   1.262       .  A
N715        O720   1.262       .  A
N718        O722   1.262       .  A
N718        O721   1.261       .  A
C723        C724   1.398       .  A
C723        C728   1.399   1_565  A
C723        H730   1.084       .  S
C724        C725   1.413   1_565  A
C725        C726   1.401       .  A
C725        N732   1.428   1_545  S
C726        C727   1.402       .  A
C726        H731   1.084       .  S
C727        C728   1.414       .  A
C728        N729   1.428       .  S
N729        O733   1.262       .  A
N729        O734   1.262   1_545  A
N732        O736   1.262   1_565  A
N732        O735   1.262       .  A
C737        C738   1.401       .  A
C737        C742   1.397       .  A
C737        H744   1.084       .  S
C738        C739   1.409       .  A
C739        C740   1.400       .  A
C739        N746   1.427       .  S
C740        C741   1.405       .  A
C740        H745   1.084       .  S
C741        C742   1.413       .  A
C742        N743   1.429       .  S
N743        O747   1.262       .  A
N743        O748   1.262       .  A
N746        O750   1.262       .  A
N746        O749   1.262       .  A
C751        C752   1.401       .  A
C751        C756   1.398       .  A
C751        H758   1.085       .  S
C752        C753   1.415       .  A
C753        C754   1.402       .  A
C753        N760   1.428       .  S
C754        C755   1.400       .  A
C754        H759   1.084       .  S
C755        C756   1.410       .  A
C756        N757   1.426       .  S
N757        O761   1.261       .  A
N757        O762   1.262       .  A
N760        O764   1.262       .  A
N760        O763   1.262       .  A
C765        C766   1.408       .  A
C765        C770   1.407       .  A
C765        H772   1.083       .  S
C766        C767   1.414       .  A
C767        C768   1.397       .  A
C767        N774   1.427       .  S
C768        C769   1.397       .  A
C768        H773   1.084       .  S
C769        C770   1.407       .  A
C770        N771   1.429       .  S
N771        O775   1.262       .  A
N771        O776   1.262       .  A
N774        O778   1.261       .  A
N774        O777   1.262       .  A
C779        C780   1.399       .  A
C779        C784   1.400       .  A
C779        H786   1.084       .  S
C780        C781   1.412       .  A
C781        C782   1.397       .  A
C781        N788   1.428       .  S
C782        C783   1.402       .  A
C782        H787   1.084       .  S
C783        C784   1.415       .  A
C784        N785   1.428       .  S
N785        O789   1.262       .  A
N785        O790   1.262       .  A
N788        O792   1.262       .  A
N788        O791   1.262       .  A
C793        C794   1.396       .  A
C793        C798   1.397       .  A
C793        H800   1.084       .  S
C794        C795   1.403       .  A
C795        C796   1.401       .  A
C795        N802   1.429       .  S
C796        C797   1.408       .  A
C796        H801   1.084       .  S
C797        C798   1.413       .  A
C798        N799   1.428       .  S
N799        O803   1.262       .  A
N799        O804   1.262       .  A
N802        O806   1.261       .  A
N802        O805   1.262       .  A
C807        C808   1.401       .  A
C807        C812   1.400       .  A
C807        H814   1.084       .  S
C808        C809   1.418       .  A
C809        C810   1.406       .  A
C809        N816   1.429       .  S
C810        C811   1.401       .  A
C810        H815   1.084       .  S
C811        C812   1.411       .  A
C812        N813   1.427       .  S
N813        O817   1.262       .  A
N813        O818   1.261       .  A
N816        O820   1.262       .  A
N816        O819   1.262       .  A
C821        C822   1.401       .  A
C821        C826   1.402       .  A
C821        H828   1.084       .  S
C822        C823   1.417       .  A
C823        C824   1.402       .  A
C823        N830   1.428       .  S
C824        C825   1.399       .  A
C824        H829   1.084       .  S
C825        C826   1.415       .  A
C826        N827   1.427       .  S
N827        O831   1.261       .  A
N827        O832   1.262       .  A
N830        O834   1.261       .  A
N830        O833   1.261       .  A
C835        C836   1.395       .  A
C835        C840   1.391       .  A
C835        H842   1.085       .  S
C836        C837   1.404       .  A
C837        C838   1.408       .  A
C837        N844   1.430       .  S
C838        C839   1.416       .  A
C838        H843   1.084       .  S
C839        C840   1.412       .  A
C840        N841   1.426       .  S
N841        O845   1.260       .  A
N841        O846   1.261       .  A
N844        O848   1.262       .  A
N844        O847   1.262       .  A
C849        C850   1.403       .  A
C849        C854   1.400       .  A
C849        H856   1.084       .  S
C850        C851   1.414       .  A
C851        C852   1.399   1_545  A
C851        N858   1.427       .  S
C852        C853   1.397       .  A
C852        H857   1.084       .  S
C853        C854   1.409   1_565  A
C854        N855   1.428   1_545  S
N855        O859   1.262   1_565  A
N855        O860   1.262       .  A
N858        O862   1.261       .  A
N858        O861   1.261   1_545  A
C863        C864   1.403       .  A
C863        C868   1.399   1_545  A
C863        H870   1.085       .  S
C864        C865   1.415       .  A
C865        C866   1.401   1_545  A
C865        N872   1.428       .  S
C866        C867   1.399       .  A
C866        H871   1.084       .  S
C867        C868   1.413       .  A
C868        N869   1.428       .  S
N869        O873   1.262       .  A
N869        O874   1.262   1_565  A
N872        O876   1.262       .  A
N872        O875   1.262   1_545  A
C877        C878   1.405       .  A
C877        C882   1.399       .  A
C877        H884   1.084       .  S
C878        C879   1.411       .  A
C879        C880   1.394       .  A
C879        N886   1.429       .  S
C880        C881   1.401       .  A
C880        H885   1.085       .  S
C881        C882   1.409       .  A
C882        N883   1.427       .  S
N883        O887   1.262       .  A
N883        O888   1.262       .  A
N886        O890   1.260       .  A
N886        O889   1.262       .  A
C891        C892   1.408       .  A
C891        C896   1.400       .  A
C891        H898   1.084       .  S
C892        C893   1.416       .  A
C893        C894   1.396       .  A
C893        N900   1.427       .  S
C894        C895   1.394       .  A
C894        H899   1.084       .  S
C895        C896   1.402       .  A
C896        N897   1.429       .  S
N897        O901   1.262       .  A
N897        O902   1.261       .  A
N900        O904   1.262       .  A
N900        O903   1.262       .  A
C905        C906   1.400       .  A
C905        C910   1.393       .  A
C905        H912   1.085       .  S
C906        C907   1.416       .  A
C907        C908   1.403       .  A
C907        N914   1.428       .  S
C908        C909   1.401       .  A
C908        H913   1.084       .  S
C909        C910   1.411       .  A
C910        N911   1.427       .  S
N911        O915   1.261       .  A
N911        O916   1.262       .  A
N914        O918   1.262       .  A
N914        O917   1.262       .  A
C919        C920   1.405       .  A
C919        C924   1.401       .  A
C919        H926   1.084       .  S
C920        C921   1.410       .  A
C921        C922   1.402   1_565  A
C921        N928   1.428       .  S
C922        C923   1.407       .  A
C922        H927   1.084       .  S
C923        C924   1.411   1_545  A
C924        N925   1.428       .  S
N925        O929   1.262   1_565  A
N925        O930   1.262       .  A
N928        O932   1.262       .  A
N928        O931   1.262   1_565  A
C933        C934   1.402       .  A
C933        C938   1.401       .  A
C933        H940   1.084       .  S
C934        C935   1.408       .  A
C935        C936   1.400       .  A
C935        N942   1.427       .  S
C936        C937   1.403       .  A
C936        H941   1.084       .  S
C937        C938   1.414       .  A
C938        N939   1.429       .  S
N939        O943   1.262       .  A
N939        O944   1.262       .  A
N942        O946   1.262       .  A
N942        O945   1.262       .  A
C947        C948   1.407       .  A
C947        C952   1.399       .  A
C947        H954   1.084       .  S
C948        C949   1.412       .  A
C949        C950   1.403   1_565  A
C949        N956   1.427       .  S
C950        C951   1.403       .  A
C950        H955   1.084       .  S
C951        C952   1.408   1_545  A
C952        N953   1.430   1_565  S
N953        O957   1.262       .  A
N953        O958   1.262   1_545  A
N956        O960   1.262   1_565  A
N956        O959   1.262       .  A
C961        C962   1.400       .  A
C961        C966   1.403       .  A
C961        H968   1.084       .  S
C962        C963   1.411       .  A
C963        C964   1.399       .  A
C963        N970   1.428       .  S
C964        C965   1.402       .  A
C964        H969   1.085       .  S
C965        C966   1.414       .  A
C966        N967   1.428       .  S
N967        O971   1.262       .  A
N967        O972   1.262       .  A
N970        O974   1.262       .  A
N970        O973   1.262       .  A
C975        C976   1.406       .  A
C975        C980   1.401       .  A
C975        H982   1.084       .  S
C976        C977   1.414       .  A
C977        C978   1.398       .  A
C977        N984   1.430       .  S
C978        C979   1.405       .  A
C978        H983   1.084       .  S
C979        C980   1.409       .  A
C980        N981   1.426       .  S
N981        O985   1.261       .  A
N981        O986   1.262       .  A
N984        O988   1.262       .  A
N984        O987   1.262       .  A
C989        C990   1.403       .  A
C989        C994   1.401       .  A
C989        H996   1.084       .  S
C990        C991   1.404       .  A
C991        C992   1.399       .  A
C991        N998   1.430       .  S
C992        C993   1.408       .  A
C992        H997   1.084       .  S
C993        C994   1.407       .  A
C994        N995   1.429       .  S
N995        O999   1.262       .  A
N995       O1000   1.262       .  A
N998       O1002   1.262       .  A
N998       O1001   1.262       .  A
C1003      C1004   1.403       .  A
C1003      C1008   1.403       .  A
C1003      H1010   1.084       .  S
C1004      C1005   1.404       .  A
C1005      C1006   1.399       .  A
C1005      N1012   1.429       .  S
C1006      C1007   1.406       .  A
C1006      H1011   1.082       .  S
C1007      C1008   1.407       .  A
C1008      N1009   1.428       .  S
N1009      O1013   1.262       .  A
N1009      O1014   1.262       .  A
N1012      O1016   1.262       .  A
N1012      O1015   1.262       .  A
C1017      C1018   1.406       .  A
C1017      C1022   1.401       .  A
C1017      H1024   1.084       .  S
C1018      C1019   1.413       .  A
C1019      C1020   1.397       .  A
C1019      N1026   1.429       .  S
C1020      C1021   1.403       .  A
C1020      H1025   1.084       .  S
C1021      C1022   1.410       .  A
C1022      N1023   1.427       .  S
N1023      O1027   1.262       .  A
N1023      O1028   1.262       .  A
N1026      O1030   1.262       .  A
N1026      O1029   1.262       .  A
C1031      C1032   1.395       .  A
C1031      C1036   1.396       .  A
C1031      H1038   1.084       .  S
C1032      C1033   1.405       .  A
C1033      C1034   1.407       .  A
C1033      N1040   1.430       .  S
C1034      C1035   1.413       .  A
C1034      H1039   1.084       .  S
C1035      C1036   1.415       .  A
C1036      N1037   1.427       .  S
N1037      O1041   1.261   1_556  A
N1037      O1042   1.261       .  A
N1040      O1044   1.262       .  A
N1040      O1043   1.262       .  A
C1045      C1046   1.399       .  A
C1045      C1050   1.403       .  A
C1045      H1052   1.084       .  S
C1046      C1047   1.411       .  A
C1047      C1048   1.398       .  A
C1047      N1054   1.428       .  S
C1048      C1049   1.402       .  A
C1048      H1053   1.084       .  S
C1049      C1050   1.420       .  A
C1050      N1051   1.428       .  S
N1051      O1055   1.262       .  A
N1051      O1056   1.262       .  A
N1054      O1058   1.262       .  A
N1054      O1057   1.262       .  A
C1059      C1060   1.402       .  A
C1059      C1064   1.399       .  A
C1059      H1066   1.084       .  S
C1060      C1061   1.408       .  A
C1061      C1062   1.399       .  A
C1061      N1068   1.427       .  S
C1062      C1063   1.404       .  A
C1062      H1067   1.084       .  S
C1063      C1064   1.412       .  A
C1064      N1065   1.429       .  S
N1065      O1069   1.262       .  A
N1065      O1070   1.262       .  A
N1068      O1072   1.262       .  A
N1068      O1071   1.262       .  A
C1073      C1074   1.400   1_545  A
C1073      C1078   1.399       .  A
C1073      H1080   1.084       .  S
C1074      C1075   1.408       .  A
C1075      C1076   1.399   1_565  A
C1075      N1082   1.427       .  S
C1076      C1077   1.404       .  A
C1076      H1081   1.084       .  S
C1077      C1078   1.415       .  A
C1078      N1079   1.429       .  S
N1079      O1083   1.262       .  A
N1079      O1084   1.262       .  A
N1082      O1086   1.261       .  A
N1082      O1085   1.262   1_565  A
C1087      C1088   1.408       .  A
C1087      C1092   1.400       .  A
C1087      H1094   1.084       .  S
C1088      C1089   1.417       .  A
C1089      C1090   1.400   1_545  A
C1089      N1096   1.428   1_545  S
C1090      C1091   1.396       .  A
C1090      H1095   1.084       .  S
C1091      C1092   1.403   1_565  A
C1092      N1093   1.429       .  S
N1093      O1097   1.262       .  A
N1093      O1098   1.261   1_545  A
N1096      O1100   1.262       .  A
N1096      O1099   1.262   1_565  A
C1101      C1102   1.400       .  A
C1101      C1106   1.398       .  A
C1101      H1108   1.084       .  S
C1102      C1103   1.416       .  A
C1103      C1104   1.399       .  A
C1103      N1110   1.428       .  S
C1104      C1105   1.399       .  A
C1104      H1109   1.084       .  S
C1105      C1106   1.413       .  A
C1106      N1107   1.427       .  S
N1107      O1111   1.262       .  A
N1107      O1112   1.262       .  A
N1110      O1114   1.262       .  A
N1110      O1113   1.262       .  A
C1115      C1116   1.407       .  A
C1115      C1120   1.404       .  A
C1115      H1122   1.084       .  S
C1116      C1117   1.411       .  A
C1117      C1118   1.401       .  A
C1117      N1124   1.427       .  S
C1118      C1119   1.401       .  A
C1118      H1123   1.084       .  S
C1119      C1120   1.410       .  A
C1120      N1121   1.430       .  S
N1121      O1125   1.262   1_455  A
N1121      O1126   1.262       .  A
N1124      O1128   1.262       .  A
N1124      O1127   1.262       .  A
C1129      C1130   1.403       .  A
C1129      C1134   1.399       .  A
C1129      H1136   1.084       .  S
C1130      C1131   1.410       .  A
C1131      C1132   1.401       .  A
C1131      N1138   1.428       .  S
C1132      C1133   1.405       .  A
C1132      H1137   1.084       .  S
C1133      C1134   1.409       .  A
C1134      N1135   1.428       .  S
N1135      O1139   1.262       .  A
N1135      O1140   1.262       .  A
N1138      O1142   1.262       .  A
N1138      O1141   1.262       .  A
C1143      C1144   1.404       .  A
C1143      C1148   1.398       .  A
C1143      H1150   1.084       .  S
C1144      C1145   1.410       .  A
C1145      C1146   1.400       .  A
C1145      N1152   1.428       .  S
C1146      C1147   1.406       .  A
C1146      H1151   1.084       .  S
C1147      C1148   1.409       .  A
C1148      N1149   1.428       .  S
N1149      O1153   1.262       .  A
N1149      O1154   1.262       .  A
N1152      O1156   1.262       .  A
N1152      O1155   1.262       .  A
C1157      C1158   1.404       .  A
C1157      C1162   1.403       .  A
C1157      H1164   1.084       .  S
C1158      C1159   1.408       .  A
C1159      C1160   1.401       .  A
C1159      N1166   1.427       .  S
C1160      C1161   1.407       .  A
C1160      H1165   1.084       .  S
C1161      C1162   1.412       .  A
C1162      N1163   1.428       .  S
N1163      O1167   1.262       .  A
N1163      O1168   1.262       .  A
N1166      O1170   1.262       .  A
N1166      O1169   1.261       .  A
C1171      C1172   1.397       .  A
C1171      C1176   1.401       .  A
C1171      H1178   1.084       .  S
C1172      C1173   1.404       .  A
C1173      C1174   1.401       .  A
C1173      N1180   1.429       .  S
C1174      C1175   1.409       .  A
C1174      H1179   1.084       .  S
C1175      C1176   1.417       .  A
C1176      N1177   1.427       .  S
N1177      O1181   1.262       .  A
N1177      O1182   1.262       .  A
N1180      O1184   1.261       .  A
N1180      O1183   1.261       .  A
C1185      C1186   1.399       .  A
C1185      C1190   1.401       .  A
C1185      H1192   1.084       .  S
C1186      C1187   1.416       .  A
C1187      C1188   1.401       .  A
C1187      N1194   1.428       .  S
C1188      C1189   1.400       .  A
C1188      H1193   1.084       .  S
C1189      C1190   1.419       .  A
C1190      N1191   1.428       .  S
N1191      O1195   1.262       .  A
N1191      O1196   1.262       .  A
N1194      O1198   1.262       .  A
N1194      O1197   1.262       .  A
C1199      C1200   1.407       .  A
C1199      C1204   1.404       .  A
C1199      H1206   1.083       .  S
C1200      C1201   1.414       .  A
C1201      C1202   1.393       .  A
C1201      N1208   1.428       .  S
C1202      C1203   1.395       .  A
C1202      H1207   1.085       .  S
C1203      C1204   1.405       .  A
C1204      N1205   1.429       .  S
N1205      O1209   1.262       .  A
N1205      O1210   1.262       .  A
N1208      O1212   1.262       .  A
N1208      O1211   1.262       .  A
C1213      C1214   1.398       .  A
C1213      C1218   1.401       .  A
C1213      H1220   1.084       .  S
C1214      C1215   1.403       .  A
C1215      C1216   1.402       .  A
C1215      N1222   1.429       .  S
C1216      C1217   1.410       .  A
C1216      H1221   1.084       .  S
C1217      C1218   1.413       .  A
C1218      N1219   1.427       .  S
N1219      O1223   1.262       .  A
N1219      O1224   1.262       .  A
N1222      O1226   1.261       .  A
N1222      O1225   1.261       .  A
C1227      C1228   1.402       .  A
C1227      C1232   1.400       .  A
C1227      H1234   1.084       .  S
C1228      C1229   1.419       .  A
C1229      C1230   1.401       .  A
C1229      N1236   1.429       .  S
C1230      C1231   1.399       .  A
C1230      H1235   1.084       .  S
C1231      C1232   1.412       .  A
C1232      N1233   1.427       .  S
N1233      O1237   1.262       .  A
N1233      O1238   1.261       .  A
N1236      O1240   1.262       .  A
N1236      O1239   1.262       .  A
C1241      C1242   1.403       .  A
C1241      C1246   1.398       .  A
C1241      H1248   1.084       .  S
C1242      C1243   1.415       .  A
C1243      C1244   1.401       .  A
C1243      N1250   1.429       .  S
C1244      C1245   1.401       .  A
C1244      H1249   1.084       .  S
C1245      C1246   1.411       .  A
C1246      N1247   1.428       .  S
N1247      O1251   1.261       .  A
N1247      O1252   1.262       .  A
N1250      O1254   1.262       .  A
N1250      O1253   1.262       .  A
C1255      C1256   1.402       .  A
C1255      C1260   1.398       .  A
C1255      H1262   1.084       .  S
C1256      C1257   1.410       .  A
C1257      C1258   1.402       .  A
C1257      N1264   1.428       .  S
C1258      C1259   1.407       .  A
C1258      H1263   1.084       .  S
C1259      C1260   1.411       .  A
C1260      N1261   1.428       .  S
N1261      O1265   1.262       .  A
N1261      O1266   1.262       .  A
N1264      O1268   1.261       .  A
N1264      O1267   1.262       .  A
C1269      C1270   1.408       .  A
C1269      C1274   1.407       .  A
C1269      H1276   1.083       .  S
C1270      C1271   1.412       .  A
C1271      C1272   1.397       .  A
C1271      N1278   1.427       .  S
C1272      C1273   1.399       .  A
C1272      H1277   1.084       .  S
C1273      C1274   1.405       .  A
C1274      N1275   1.429       .  S
N1275      O1279   1.262       .  A
N1275      O1280   1.262       .  A
N1278      O1282   1.262       .  A
N1278      O1281   1.262       .  A
C1283      C1284   1.408       .  A
C1283      C1288   1.407       .  A
C1283      H1290   1.083       .  S
C1284      C1285   1.411       .  A
C1285      C1286   1.396       .  A
C1285      N1292   1.427       .  S
C1286      C1287   1.399       .  A
C1286      H1291   1.085       .  S
C1287      C1288   1.405       .  A
C1288      N1289   1.429       .  S
N1289      O1293   1.262       .  A
N1289      O1294   1.262       .  A
N1292      O1296   1.261       .  A
N1292      O1295   1.262       .  A
C1297      C1298   1.401       .  A
C1297      C1302   1.404       .  A
C1297      H1304   1.084       .  S
C1298      C1299   1.410       .  A
C1299      C1300   1.398       .  A
C1299      N1306   1.427       .  S
C1300      C1301   1.402       .  A
C1300      H1305   1.084       .  S
C1301      C1302   1.417       .  A
C1302      N1303   1.429       .  S
N1303      O1307   1.262       .  A
N1303      O1308   1.262       .  A
N1306      O1310   1.262       .  A
N1306      O1309   1.261       .  A
C1311      C1312   1.404       .  A
C1311      C1316   1.410       .  A
C1311      H1318   1.083       .  S
C1312      C1313   1.411       .  A
C1313      C1314   1.397       .  A
C1313      N1320   1.427       .  S
C1314      C1315   1.400       .  A
C1314      H1319   1.084       .  S
C1315      C1316   1.416       .  A
C1316      N1317   1.438       .  S
N1317      O1321   1.263       .  A
N1317      O1322   1.263       .  A
N1320      O1324   1.262       .  A
N1320      O1323   1.262       .  A
C1325      C1326   1.405       .  A
C1325      C1330   1.401       .  A
C1325      H1332   1.084       .  S
C1326      C1327   1.408       .  A
C1327      C1328   1.406       .  A
C1327      N1334   1.429       .  S
C1328      C1329   1.405       .  A
C1328      H1333   1.083       .  S
C1329      C1330   1.406       .  A
C1330      N1331   1.429       .  S
N1331      O1335   1.261       .  A
N1331      O1336   1.262       .  A
N1334      O1338   1.262       .  A
N1334      O1337   1.262       .  A
