geometry optimzed in LAMMPS
_audit_creation_date              2020-12-01 
_audit_creation_method            'lammps2cif' 
_symmetry_space_group_name_H-M    'P1' 
_symmetry_Int_Tables_number       1 
_symmetry_cell_setting            triclinic 
loop_ 
_symmetry_equiv_pos_as_xyz 
  x,y,z 
_cell_length_a                    33.8659097 
_cell_length_b                    34.986520137056964 
_cell_length_c                    34.822480775475306 
_cell_angle_alpha                 90.57906689883133 
_cell_angle_beta                  90.16332685668186 
_cell_angle_gamma                 89.96002098951564 
loop_ 
_atom_site_label 
_atom_site_type_symbol 
_atom_site_fract_x 
_atom_site_fract_y 
_atom_site_fract_z 
_atom_site_charge 
C1          C  0.24683321  0.20038175  0.72182223     0.86600
C2          C  0.28213562  0.20427979  0.74927920    -0.53600
C3          C  0.28302445  0.23768147  0.77011303     0.09500
C4          C  0.24821783  0.26474458  0.76094970     0.20500
C5          C  0.21072785  0.20653843  0.74784054    -0.54300
C6          C  0.21156321  0.23990258  0.76868886     0.09600
C7          C  0.24828552  0.23593695  0.69694530    -0.53900
C8          C  0.24909478  0.26947838  0.71693096     0.10200
H9          H  0.30433089  0.18207014  0.75219039     0.14700
H10         H  0.24880991  0.29205666  0.77744277     0.00500
H11         H  0.18703649  0.18618049  0.75124056     0.15000
H12         H  0.24903748  0.23471467  0.66574304     0.14800
C13         C  0.13505173  0.08275361  0.50914666     0.42600
N14         N  0.16848470  0.03601618  0.48566644     0.01500
C15         C  0.28878387  0.41090721  0.59348212    -0.06400
H16         H  0.31993089  0.05833892  0.60549973     0.07000
C17         C  0.35109212  0.06669291  0.46770617    -0.06700
Co18       Co  0.20273742  0.48438008  0.55193429     0.74200
N19         N  0.27465748  0.02488266  0.57738060    -0.25900
Co20       Co  0.30499755  0.48412094  0.54645354     0.74100
C21         C  0.36693211  0.08157762  0.50394001     0.42700
N22         N  0.26599719  0.04166437  0.42048935     0.01100
N23         N  0.33360021  0.03072638  0.51490931     0.01200
N24         N  0.22212137  0.41245680  0.59758906    -0.46800
H25         H  0.14543915  0.06270074  0.57101587     0.07000
N26         N  0.23573666  0.02483535  0.57975234     0.01500
N27         N  0.33267820  0.44555771  0.50844342     0.01200
C28         C  0.36636174  0.39958525  0.48362198     0.42800
N29         N  0.22709158  0.04190145  0.42264419    -0.25400
C30         C  0.15058221  0.41517099  0.52548951    -0.06300
N31         N  0.14764028  0.06661175  0.47594478    -0.46500
N32         N  0.35398136  0.41497683  0.51732154    -0.46700
C33         C  0.13439815  0.40157311  0.48889722     0.42600
N34         N  0.23562201  0.43969248  0.57493481     0.01500
N35         N  0.22633998  0.46094093  0.41596001    -0.25400
N36         N  0.17020697  0.03115422  0.52316202    -0.25900
N37         N  0.26525198  0.46010033  0.41424666     0.01100
H38         H  0.18076436  0.43134313  0.38414348     0.07000
H39         H  0.35528110  0.42082680  0.42228781     0.07000
N40         N  0.27451895  0.43977059  0.57262671    -0.25900
N41         N  0.33091876  0.03520854  0.47743423    -0.25600
N42         N  0.16807209  0.45241220  0.47927846     0.01500
C43         C  0.25419551  0.06902047  0.61868443     0.42900
C44         C  0.21332138  0.07240784  0.40386789    -0.06800
N45         N  0.33056419  0.45101672  0.47100936    -0.25600
H46         H  0.35440748  0.07754133  0.43892871     0.07000
N47         N  0.22222984  0.05077008  0.60433375    -0.46800
H48         H  0.18249310  0.07922343  0.39954683     0.07000
C49         C  0.24653555  0.41993425  0.37110364     0.42700
C50         C  0.14946801  0.05911011  0.54039605    -0.06300
Co51       Co  0.19714500  0.49814561  0.45342882     0.73800
N52         N  0.28001794  0.07053079  0.40039192    -0.46500
C53         C  0.25398533  0.39291372  0.61012184     0.43000
N54         N  0.14612382  0.42620889  0.46164961    -0.46500
Co55       Co  0.29925320  0.49680017  0.44805031     0.73900
C56         C  0.35128787  0.42357889  0.45299688    -0.06800
C57         C  0.28902177  0.05199598  0.60092895    -0.06400
N58         N  0.17091999  0.44676895  0.51664984    -0.25900
N59         N  0.35523362  0.05763813  0.53181929    -0.46700
H60         H  0.31972871  0.40544045  0.59885887     0.07000
C61         C  0.21175470  0.43642973  0.38969792    -0.06800
Cl62       Cl  0.25103752  0.49070381  0.49997200    -0.49800
C63         C  0.24853777  0.09138317  0.38922427     0.42700
H64         H  0.14714025  0.40363093  0.55397501     0.06900
N65         N  0.27856361  0.43589908  0.38787637    -0.46500
N66         N  0.99997422  0.18270595  0.49352515    -0.36500
N67         N  0.44128067  0.24123758  0.49593103    -0.57000
N68         N  0.99937575  0.30057140  0.49735042    -0.36500
N69         N  0.06121999  0.24161095  0.49478330    -0.57000
C70         C  0.47012586  0.15978976  0.48964708     0.27100
C71         C  0.03224254  0.16069021  0.48663174     0.27100
C72         C  0.47086877  0.32178738  0.50571437     0.27100
C73         C  0.03165958  0.32244831  0.50451899     0.27100
C74         C  0.41738549  0.21048939  0.49183237     0.38100
C75         C  0.41775874  0.27251418  0.49641753     0.35700
C76         C  0.08514704  0.21073677  0.49179705     0.35700
C77         C  0.08482878  0.27272278  0.49680607     0.35700
C78         C  0.48224121  0.12290349  0.48045851    -0.21800
C79         C  0.02020363  0.12413369  0.47624565    -0.21800
C80         C  0.48282203  0.35799064  0.51741932    -0.21800
C81         C  0.01961577  0.35867673  0.51617614    -0.21800
C82         C  0.37836600  0.22238196  0.48963511    -0.22800
C83         C  0.37861808  0.26158550  0.49248394    -0.22800
C84         C  0.12427612  0.22233501  0.49181496    -0.22800
C85         C  0.12408042  0.26152416  0.49490734    -0.22800
C86         C  0.42996538  0.17182382  0.48976925    -0.18200
C87         C  0.07243055  0.17222457  0.48872357    -0.18200
C88         C  0.07184638  0.31102507  0.50147952    -0.18200
C89         C  0.43070897  0.31073066  0.50160712    -0.18200
H90         H  0.46398766  0.09875274  0.47235429     0.14700
H91         H  0.03859808  0.09997544  0.46848603     0.14700
H92         H  0.46434648  0.38219309  0.52485724     0.14700
H93         H  0.03800846  0.38266523  0.52448263     0.14700
H94         H  0.35234448  0.20470541  0.48631120     0.13000
H95         H  0.35286681  0.27991584  0.49190645     0.13000
H96         H  0.15030160  0.20446761  0.48976452     0.13000
H97         H  0.14995619  0.27965367  0.49586043     0.13000
H98         H  0.99994308  0.21076780  0.50301546     0.26300
H99         H  0.99938775  0.27278747  0.48699333     0.26300
C100        C  0.25373961  0.21600463  0.27945214     0.86600
C101        C  0.21853954  0.21671667  0.25156111    -0.53600
C102        C  0.21748461  0.24790482  0.22808266     0.09500
C103        C  0.25200941  0.27586330  0.23496964     0.20500
C104        C  0.28974236  0.21944911  0.25284576    -0.54300
C105        C  0.28941407  0.25105412  0.22983719     0.09600
C106        C  0.25193131  0.25410004  0.30111672    -0.53900
C107        C  0.25096884  0.28517825  0.27806875     0.10200
H108        H  0.19652920  0.19417871  0.25033788     0.14700
H109        H  0.25100086  0.30174983  0.21691039     0.00500
H110        H  0.31235173  0.19775682  0.25048112     0.15000
H111        H  0.25177803  0.25638606  0.33227082     0.14800
N112        N  0.25132191  0.45174880  0.01432406    -0.36500
N113        N  0.30886852  0.00954723  0.02828131    -0.57000
N114        N  0.24885678  0.06659905  0.01226815    -0.36500
N115        N  0.18815193  0.00730808  0.01422312    -0.57000
C116        C  0.28272784  0.42990258  0.02408195     0.27100
C117        C  0.21818986  0.43212492  0.02306084     0.27100
C118        C  0.28198460  0.08774055  0.00790087     0.27100
C119        C  0.21867841  0.08542891  0.99521079     0.27100
C120        C  0.33619687  0.47772791  0.01359142     0.35700
C121        C  0.33093878  0.04127447  0.03399829     0.35700
C122        C  0.16817294  0.48087977  0.00236841     0.35700
C123        C  0.16499367  0.03828529  0.00841821     0.35700
C124        C  0.26942371  0.39538675  0.03836702    -0.21800
C125        C  0.22875856  0.39688701  0.03799998    -0.21800
C126        C  0.27257231  0.12090931  0.98835989    -0.21800
C127        C  0.23276866  0.11929170  0.98009889    -0.21800
C128        C  0.37543236  0.48846988  0.00975560    -0.22800
C129        C  0.36770657  0.03130747  0.04849972    -0.22800
C130        C  0.13092315  0.49105926  0.98920417    -0.22800
C131        C  0.12587781  0.02911104  0.01555642    -0.22800
C132        C  0.32295368  0.43975878  0.01905490    -0.18200
C133        C  0.17881019  0.44401934  0.01576754    -0.18200
C134        C  0.17839142  0.07433558  0.99542478    -0.18200
C135        C  0.31988090  0.07856872  0.02280812    -0.18200
H136        H  0.28709644  0.37154547  0.04804797     0.14700
H137        H  0.20924640  0.37422972  0.04706003     0.14700
H138        H  0.29211044  0.14411382  0.98095737     0.14700
H139        H  0.21597440  0.14103409  0.96535170     0.14700
H140        H  0.40127411  0.47031207  0.00893290     0.13000
H141        H  0.39218133  0.05010385  0.05524805     0.13000
H142        H  0.10496164  0.47328533  0.98646294     0.13000
H143        H  0.10024520  0.04737919  0.01297537     0.13000
H144        H  0.25251282  0.47784988  0.00067890     0.26300
H145        H  0.24667912  0.04182196  0.02808444     0.26300
C146        C  0.09114776  0.26378053  0.88332288     0.42600
N147        N  0.04391059  0.24715868  0.92024040     0.01500
C148        C  0.42917729  0.35923317  0.03117762    -0.06400
H149        H  0.08305711  0.36479687  0.06362634     0.07000
C150        C  0.07244930  0.22481395  0.09824145    -0.06700
Co151      Co  0.50178842  0.30821700  0.94921318     0.74200
N152        N  0.04288142  0.34000613  0.02191161    -0.25900
Co153      Co  0.50203773  0.30740015  0.04900499     0.74100
C154        C  0.09319404  0.25795651  0.11406265     0.42700
N155        N  0.04352815  0.18237742  0.01546531     0.01100
N156        N  0.04408791  0.27687777  0.07995429     0.01200
N157        N  0.43034765  0.35909642  0.96617584    -0.46800
H158        H  0.07677716  0.32787960  0.89181707     0.07000
N159        N  0.04119551  0.34180451  0.98405040     0.01500
N160        N  0.45733322  0.27816954  0.07769220     0.01200
C161        C  0.40873087  0.26374046  0.11376092     0.42800
N162        N  0.04581656  0.18380623  0.97770767    -0.25400
C163        C  0.42800624  0.29226708  0.89672147    -0.06300
N164        N  0.07242679  0.23353299  0.89834920    -0.46500
N165        N  0.42985409  0.29336031  0.10022807    -0.46700
C166        C  0.40795118  0.25789898  0.88240104     0.42600
N167        N  0.45953894  0.33843390  0.98052880     0.01500
N168        N  0.45466465  0.18104383  0.97614055    -0.25400
N169        N  0.04210887  0.28484735  0.92054264    -0.25900
N170        N  0.45276834  0.18071997  0.01399540     0.01100
H171        H  0.41872995  0.15556179  0.93147175     0.07000
H172        H  0.41839772  0.19930702  0.10423925     0.07000
N173        N  0.45968579  0.33818489  0.01844640    -0.25900
N174        N  0.04273120  0.23923751  0.07768305    -0.25600
N175        N  0.45719521  0.24144928  0.91763844     0.01500
C176        C  0.09198287  0.37524574  0.99880996     0.42900
C177        C  0.07731348  0.16270224  0.96657598    -0.06800
N178        N  0.45558747  0.24048321  0.07627643    -0.25600
H179        H  0.07817468  0.19470215  0.10198459     0.07000
N180        N  0.06989768  0.36250169  0.96922010    -0.46800
H181        H  0.08661370  0.15770962  0.93726608     0.07000
C182        C  0.40317530  0.14734360  0.99493667     0.42700
C183        C  0.07100619  0.29813363  0.89777010    -0.06300
Co184      Co  0.49931957  0.20937741  0.94716359     0.73800
N185        N  0.07173994  0.16167987  0.03119360    -0.46500
C186        C  0.40970197  0.37276092  0.99637483     0.43000
N187        N  0.42786677  0.22764931  0.89650391    -0.46500
Co188      Co  0.49693034  0.20828839  0.04648590     0.73900
C189        C  0.42601101  0.22871983  0.09852422    -0.06800
C190        C  0.07412323  0.36063708  0.03404430    -0.06400
N191        N  0.45791098  0.27915054  0.91842871    -0.25900
N192        N  0.07371375  0.28942175  0.10181326    -0.46700
H193        H  0.42170437  0.36431663  0.06096067     0.07000
C194        C  0.42457282  0.16070784  0.96163170    -0.06800
Cl195      Cl  0.49999026  0.25832055  0.99799271    -0.49800
C196        C  0.09444925  0.14829924  0.00256634     0.42700
H197        H  0.42136888  0.32201539  0.89158192     0.06900
N198        N  0.42233622  0.16048075  0.02662517    -0.46500
C199        C  0.36899327  0.12122034  0.99371373    -0.16300
C200        C  0.35070821  0.10881869  0.02528956    -0.31500
H201        H  0.35923475  0.11087210  0.96572576     0.12700
H202        H  0.36126518  0.11761573  0.05350555     0.13300
C203        C  0.14666524  0.41598535  0.02284312    -0.16300
C204        C  0.12615613  0.40064384  0.99359056    -0.31500
H205        H  0.14034289  0.40794144  0.05222096     0.12700
H206        H  0.13379848  0.40832568  0.96436775     0.13300
C207        C  0.35327188  0.40922553  0.02278522    -0.16300
C208        C  0.37593185  0.39904208  0.99280013    -0.31500
H209        H  0.35736655  0.39590706  0.05054246     0.12700
H210        H  0.37031411  0.41153505  0.96486127     0.13300
C211        C  0.12751919  0.12192967  0.01028341    -0.16300
C212        C  0.14824578  0.10303827  0.98345131    -0.31500
H213        H  0.13391705  0.11625832  0.04031718     0.12700
H214        H  0.14304456  0.10798683  0.95313122     0.13300
C215        C  0.31450883  0.28057180  0.16855901    -0.13200
C216        C  0.32157619  0.25899946  0.20184515     0.08900
C217        C  0.35944503  0.24326194  0.20737506    -0.13200
C218        C  0.38817220  0.24608556  0.17905392    -0.13200
C219        C  0.38032111  0.26597492  0.14528452     0.08900
C220        C  0.34392877  0.28439123  0.14064271    -0.13200
H221        H  0.28586191  0.29301080  0.16299626     0.12900
H222        H  0.36690531  0.22794457  0.23321892     0.12900
H223        H  0.41640981  0.23211106  0.18320175     0.12900
H224        H  0.33751352  0.29979556  0.11452169     0.12900
C225        C  0.17091597  0.28768431  0.18796377    -0.13200
C226        C  0.18747935  0.25202503  0.19715568     0.08900
C227        C  0.17485052  0.21944405  0.17682940    -0.13200
C228        C  0.14525665  0.22193975  0.14917629    -0.13200
C229        C  0.12712361  0.25707570  0.14110209     0.08900
C230        C  0.14079806  0.29018666  0.16017437    -0.13200
H231        H  0.18028985  0.31331667  0.20309463     0.12900
H232        H  0.18788943  0.19175810  0.18233103     0.12900
H233        H  0.13640914  0.19594032  0.13451171     0.12900
H234        H  0.12760733  0.31772731  0.15430606     0.12900
C235        C  0.21355806  0.37520734  0.32440008    -0.13200
C236        C  0.24815530  0.38893268  0.34216106     0.08900
C237        C  0.28439675  0.37115045  0.33389886    -0.13200
C238        C  0.28563349  0.33860650  0.31048344    -0.13200
C239        C  0.25078790  0.32383905  0.29455914     0.08900
C240        C  0.21491149  0.34277466  0.30066445    -0.13200
H241        H  0.18529742  0.38858608  0.32991527     0.12900
H242        H  0.31152230  0.38121492  0.34706847     0.12900
H243        H  0.31343940  0.32380917  0.30633380     0.12900
H244        H  0.18775090  0.33121816  0.28884689     0.12900
C245        C  0.28566600  0.13179206  0.34302431    -0.13200
C246        C  0.25034859  0.12350133  0.36213165     0.08900
C247        C  0.21675333  0.14562886  0.35452572    -0.13200
C248        C  0.21827846  0.17502937  0.32774377    -0.13200
C249        C  0.25316536  0.18259378  0.30725873     0.08900
C250        C  0.28715739  0.16098168  0.31598713    -0.13200
H251        H  0.31222832  0.11555703  0.34883367     0.12900
H252        H  0.18928476  0.14043730  0.36938732     0.12900
H253        H  0.19201383  0.19202920  0.32298082     0.12900
H254        H  0.31540093  0.16679572  0.30309964     0.12900
C255        C  0.39412315  0.36728779  0.47893782    -0.16300
C256        C  0.40010081  0.34111302  0.50627105    -0.31500
H257        H  0.41018765  0.36488504  0.45205186     0.12700
H258        H  0.38285686  0.34195739  0.53252349     0.13300
C259        C  0.10309249  0.14172025  0.48504797    -0.16300
C260        C  0.10789981  0.11564055  0.51275909    -0.31500
H261        H  0.12122669  0.14062461  0.45937160     0.12700
H262        H  0.09104786  0.11845003  0.53914422     0.13300
C263        C  0.10705448  0.36946013  0.48188536    -0.16300
C264        C  0.10251184  0.34105780  0.50714198    -0.31500
H265        H  0.08975131  0.36936615  0.45555934     0.12700
H266        H  0.12118485  0.33966006  0.53250194     0.13300
C267        C  0.39915097  0.14177828  0.48428208    -0.16300
C268        C  0.39390150  0.11416562  0.51034378    -0.31500
H269        H  0.38112314  0.14237545  0.45844715     0.12700
H270        H  0.41059767  0.11514986  0.53702860     0.13300
C271        C  0.32625029  0.21367162  0.82300879    -0.13200
C272        C  0.31290655  0.24450284  0.80087763     0.08900
C273        C  0.32905749  0.28093334  0.80782195    -0.13200
C274        C  0.35938963  0.28589472  0.83508579    -0.13200
C275        C  0.37385838  0.25448171  0.85580727     0.08900
C276        C  0.35636090  0.21856716  0.84996306    -0.13200
H277        H  0.31355658  0.18547406  0.81932631     0.12900
H278        H  0.31924616  0.30522599  0.79129544     0.12900
H279        H  0.37220287  0.31398555  0.83911106     0.12900
H280        H  0.36631199  0.19395140  0.86594723     0.12900
C281        C  0.16912086  0.21739275  0.82208389    -0.13200
C282        C  0.18243081  0.24773302  0.79946934     0.08900
C283        C  0.16730509  0.28459311  0.80621417    -0.13200
C284        C  0.13797692  0.29054454  0.83410978    -0.13200
C285        C  0.12377681  0.25967700  0.85559318     0.08900
C286        C  0.14011676  0.22325270  0.84961977    -0.13200
H287        H  0.18110863  0.18888153  0.81845840     0.12900
H288        H  0.17726861  0.30843807  0.78919982     0.12900
H289        H  0.12587760  0.31892628  0.83822332     0.12900
H290        H  0.13023843  0.19896306  0.86607259     0.12900
C291        C  0.21918527  0.32907945  0.69085044    -0.13200
C292        C  0.25237349  0.30570516  0.69603509     0.08900
C293        C  0.28633979  0.31213389  0.67413361    -0.13200
C294        C  0.28696133  0.34088552  0.64670116    -0.13200
C295        C  0.25340340  0.36351459  0.64031024     0.08900
C296        C  0.21963806  0.35778145  0.66301856    -0.13200
H297        H  0.19236012  0.32377061  0.70680435     0.12900
H298        H  0.31181044  0.29362155  0.67708529     0.12900
H299        H  0.31328695  0.34440748  0.62955483     0.12900
H300        H  0.19342469  0.37499414  0.65878757     0.12900
C301        C  0.21692745  0.13800741  0.69420550    -0.13200
C302        C  0.24848942  0.16415542  0.69727748     0.08900
C303        C  0.28236049  0.15763904  0.67474715    -0.13200
C304        C  0.28459743  0.12632135  0.64978924    -0.13200
C305        C  0.25276312  0.10098443  0.64635158     0.08900
C306        C  0.21906288  0.10691950  0.66885557    -0.13200
H307        H  0.18994787  0.14143931  0.71014412     0.12900
H308        H  0.30697795  0.17737416  0.67602403     0.12900
H309        H  0.31082647  0.12259969  0.63245055     0.12900
H310        H  0.19416784  0.08758369  0.66668230     0.12900
C311        C  0.24417154  0.70357332  0.72172331     0.86600
C312        C  0.27965052  0.70781204  0.74884695    -0.53600
C313        C  0.28201589  0.74209437  0.76814649     0.09500
C314        C  0.24687172  0.76896029  0.75896948     0.20500
C315        C  0.20838379  0.71086327  0.74806423    -0.54300
C316        C  0.20940137  0.74517801  0.76767300     0.09600
C317        C  0.24570668  0.73851309  0.69579354    -0.53900
C318        C  0.24707470  0.77250452  0.71493620     0.10200
H319        H  0.30066280  0.68474189  0.75255699     0.14700
H320        H  0.24790771  0.79721414  0.77358404     0.00500
H321        H  0.18506293  0.69028239  0.75236927     0.15000
H322        H  0.24568301  0.73655379  0.66461773     0.14800
C323        C  0.13538545  0.58133438  0.51613004     0.42600
N324        N  0.16934154  0.53565584  0.49154231     0.01500
C325        C  0.28821650  0.91476010  0.59236387    -0.06400
H326        H  0.31985255  0.55725587  0.61039739     0.07000
C327        C  0.35179681  0.56561103  0.47296313    -0.06700
Co328      Co  0.20214027  0.98624829  0.54743017     0.74200
N329        N  0.27516411  0.52256732  0.58274877    -0.25900
Co330      Co  0.30431936  0.98605730  0.54224323     0.74100
C331        C  0.36749735  0.58032057  0.50923353     0.42700
N332        N  0.26697201  0.54220641  0.42656203     0.01100
N333        N  0.33432897  0.52932843  0.51994943     0.01200
N334        N  0.22148646  0.91559409  0.59490449    -0.46800
H335        H  0.14552687  0.55969647  0.57747204     0.07000
N336        N  0.23623797  0.52223366  0.58514906     0.01500
N337        N  0.33179750  0.94685302  0.50530697     0.01200
C338        C  0.36426813  0.89944220  0.48197156     0.42800
N339        N  0.22810836  0.54309088  0.42893782    -0.25400
C340        C  0.15092568  0.91563009  0.52275190    -0.06300
N341        N  0.14825033  0.56626192  0.48256998    -0.46500
N342        N  0.35205416  0.91595195  0.51513147    -0.46700
C343        C  0.13527111  0.90063723  0.48645404     0.42600
N344        N  0.23510822  0.94220338  0.57162335     0.01500
N345        N  0.22618814  0.95945043  0.41228553    -0.25400
N346        N  0.17092391  0.52979404  0.52887951    -0.25900
N347        N  0.26510896  0.95900816  0.41044006     0.01100
H348        H  0.18083677  0.92850907  0.38154875     0.07000
H349        H  0.35409660  0.91930387  0.41998265     0.07000
N350        N  0.27402963  0.94249611  0.56988617    -0.25900
N351        N  0.33168735  0.53411158  0.48252278    -0.25600
N352        N  0.16776419  0.95208747  0.47565589     0.01500
C353        C  0.25392316  0.56721366  0.62378881     0.42900
C354        C  0.21496722  0.57472242  0.41167141    -0.06800
N355        N  0.33010004  0.95155920  0.46774260    -0.25600
H356        H  0.35496508  0.57668583  0.44426126     0.07000
N357        N  0.22236710  0.54838636  0.60935104    -0.46800
H358        H  0.18430945  0.58246263  0.40777236     0.07000
C359        C  0.24665177  0.91735921  0.36853863     0.42700
C360        C  0.14984704  0.55705342  0.54680308    -0.06300
Co361      Co  0.19655766  0.99745447  0.44859904     0.73800
N362        N  0.28158338  0.57152847  0.40767065    -0.46500
C363        C  0.25325078  0.89695078  0.60897350     0.43000
N364        N  0.14658238  0.92487799  0.45864395    -0.46500
Co365      Co  0.29877102  0.99690589  0.44345524     0.73900
C366        C  0.35024984  0.92315281  0.45059763    -0.06800
C367        C  0.28906668  0.55016052  0.60619490    -0.06400
N368        N  0.17054202  0.94748491  0.51317402    -0.25900
N369        N  0.35586220  0.55622148  0.53705035    -0.46700
H370        H  0.31912576  0.90970463  0.59829273     0.07000
C371        C  0.21179363  0.93401404  0.38684393    -0.06800
Cl372      Cl  0.25043854  0.99156862  0.49543297    -0.49800
C373        C  0.25060178  0.59351374  0.39775267     0.42700
H374        H  0.14786402  0.90459870  0.55148668     0.06900
N375        N  0.27858754  0.93417898  0.38469438    -0.46500
N376        N  0.00070957  0.68117804  0.50079014    -0.36500
N377        N  0.43836262  0.74109696  0.49949280    -0.57000
N378        N  0.00076455  0.79898930  0.49551977    -0.36500
N379        N  0.06216618  0.74014691  0.49816399    -0.57000
C380        C  0.46884280  0.66050539  0.49291749     0.27100
C381        C  0.03291862  0.65908643  0.49399414     0.27100
C382        C  0.46644166  0.82218302  0.50829782     0.27100
C383        C  0.03292287  0.82117914  0.50248336     0.27100
C384        C  0.41502460  0.70980801  0.49722212     0.38100
C385        C  0.41413974  0.77184506  0.50078542     0.35700
C386        C  0.08591740  0.70905668  0.49829228     0.35700
C387        C  0.08600587  0.77113458  0.49970103     0.35700
C388        C  0.48164429  0.62435555  0.48185758    -0.21800
C389        C  0.02089625  0.62242326  0.48393035    -0.21800
C390        C  0.47772453  0.85874309  0.51954757    -0.21800
C391        C  0.02066973  0.85782834  0.51234733    -0.21800
C392        C  0.37565752  0.72076036  0.49712110    -0.22800
C393        C  0.37510470  0.76000481  0.49927047    -0.22800
C394        C  0.12511573  0.72035301  0.49992814    -0.22800
C395        C  0.12517774  0.75960900  0.50075612    -0.22800
C396        C  0.42847249  0.67152691  0.49430001    -0.18200
C397        C  0.07306241  0.67059943  0.49605822    -0.18200
C398        C  0.07318793  0.80968976  0.50124619    -0.18200
C399        C  0.42648963  0.81041749  0.50425691    -0.18200
H400        H  0.46378835  0.60028772  0.47267209     0.14700
H401        H  0.03927783  0.59823696  0.47622296     0.14700
H402        H  0.45878733  0.88268346  0.52674055     0.14700
H403        H  0.03887453  0.88206952  0.52027377     0.14700
H404        H  0.34996204  0.70242560  0.49554199     0.13000
H405        H  0.34891494  0.77774590  0.49991920     0.13000
H406        H  0.15102268  0.70222776  0.50044713     0.13000
H407        H  0.15115648  0.77756806  0.50220478     0.13000
H408        H  0.00074512  0.70941161  0.51004830     0.26300
H409        H  0.00083634  0.77070502  0.48643738     0.26300
C410        C  0.25394642  0.71298839  0.28325417     0.86600
C411        C  0.21644925  0.71181545  0.25831353    -0.53600
C412        C  0.21332604  0.74103651  0.23259895     0.09500
C413        C  0.24839915  0.76928211  0.23458110     0.20500
C414        C  0.28775874  0.71423155  0.25375794    -0.54300
C415        C  0.28488432  0.74369034  0.22835137     0.09600
C416        C  0.25399561  0.75254694  0.30203959    -0.53900
C417        C  0.25107165  0.78186793  0.27694995     0.10200
H418        H  0.19440114  0.68947446  0.26085002     0.14700
H419        H  0.24644208  0.79330123  0.21408384     0.00500
H420        H  0.31157370  0.69367522  0.25185135     0.15000
H421        H  0.25612308  0.75709048  0.33291195     0.14800
N422        N  0.24781228  0.95107835  0.03601664    -0.36500
N423        N  0.31293494  0.50914770  0.01483531    -0.57000
N424        N  0.25433591  0.56868218  0.99751976    -0.36500
N425        N  0.19205314  0.51188155  0.00244050    -0.57000
C426        C  0.28021421  0.92860518  0.03277617     0.27100
C427        C  0.21583334  0.92836519  0.03164246     0.27100
C428        C  0.28542208  0.59069921  0.00805143     0.27100
C429        C  0.22217723  0.59158218  0.99592393     0.27100
C430        C  0.33126309  0.97960372  0.03928377     0.35700
C431        C  0.33708809  0.53960155  0.01131415     0.35700
C432        C  0.16408211  0.97880643  0.02574828     0.35700
C433        C  0.17044634  0.54133892  0.98867646     0.35700
C434        C  0.26859615  0.89096540  0.02692540    -0.21800
C435        C  0.22793827  0.89077761  0.02648399    -0.21800
C436        C  0.27293797  0.62825215  0.01269173    -0.21800
C437        C  0.23307778  0.62884742  0.00478283    -0.21800
C438        C  0.36799854  0.99220376  0.05153657    -0.22800
C439        C  0.37596902  0.52757640  0.00840964    -0.22800
C440        C  0.12537460  0.99170032  0.02700779    -0.22800
C441        C  0.13257785  0.52902873  0.97999127    -0.22800
C442        C  0.31987229  0.94087495  0.03634807    -0.18200
C443        C  0.17605481  0.94058705  0.03252062    -0.18200
C444        C  0.18334142  0.57982429  0.98648518    -0.18200
C445        C  0.32501403  0.57825125  0.01204966    -0.18200
H446        H  0.28742469  0.86615637  0.02350550     0.14700
H447        H  0.20942591  0.86587138  0.02224205     0.14700
H448        H  0.29071627  0.65275440  0.02078956     0.14700
H449        H  0.21419311  0.65380319  0.00595038     0.14700
H450        H  0.39244388  0.97499458  0.06156897     0.13000
H451        H  0.40208870  0.54514385  0.00566915     0.13000
H452        H  0.09930097  0.97572760  0.03481318     0.13000
H453        H  0.10830061  0.54579161  0.96890803     0.13000
H454        H  0.24724865  0.98005243  0.04240216     0.26300
H455        H  0.25525222  0.53993226  0.99015990     0.26300
C456        C  0.09103040  0.77130508  0.88435451     0.42600
N457        N  0.04471480  0.75111252  0.92082882     0.01500
C458        C  0.42587154  0.85993758  0.03834379    -0.06400
H459        H  0.07882379  0.85859622  0.07466820     0.07000
C460        C  0.06743244  0.71502207  0.10071045    -0.06700
Co461      Co  0.49776476  0.81528037  0.95175855     0.74200
N462        N  0.04057677  0.83550247  0.03026836    -0.25900
Co463      Co  0.49849556  0.80776128  0.05156127     0.74100
C464        C  0.08677625  0.74736858  0.11985547     0.42700
N465        N  0.04195784  0.67905836  0.01188181     0.01100
N466        N  0.04009412  0.76809070  0.08366061     0.01200
N467        N  0.42560867  0.86473871  0.97354416    -0.46800
H468        H  0.07659231  0.83428033  0.89887017     0.07000
N469        N  0.03961447  0.84032897  0.99268156     0.01500
N470        N  0.45440435  0.77509929  0.07832948     0.01200
C471        C  0.40528007  0.75554730  0.11186356     0.42800
N472        N  0.04547538  0.68385330  0.97447508    -0.25400
C473        C  0.42470031  0.79976947  0.89768074    -0.06300
N474        N  0.07231162  0.73971077  0.89648774    -0.46500
N475        N  0.42562947  0.78712482  0.10137836    -0.46700
C476        C  0.40795807  0.76569470  0.87915632     0.42600
N477        N  0.45461712  0.84229085  0.98554858     0.01500
N478        N  0.45563450  0.68564132  0.97016253    -0.25400
N479        N  0.04289023  0.78866376  0.92469623    -0.25900
N480        N  0.45429215  0.68276848  0.00789117     0.01100
H481        H  0.41813404  0.66403333  0.92461505     0.07000
H482        H  0.41812957  0.69264001  0.09584214     0.07000
N483        N  0.45552902  0.83938975  0.02332886    -0.25900
N484        N  0.03901980  0.73062238  0.07907869    -0.25600
N485        N  0.45653312  0.74904514  0.91496262     0.01500
C486        C  0.08863439  0.87425492  0.01107149     0.42900
C487        C  0.07755180  0.66409750  0.96254624    -0.06800
N488        N  0.45414564  0.73765246  0.07358066    -0.25600
H489        H  0.07319803  0.68474568  0.10305607     0.07000
N490        N  0.06751584  0.86336211  0.98019923    -0.46800
H491        H  0.08768466  0.66155037  0.93320715     0.07000
C492        C  0.40409759  0.65138808  0.98767337     0.42700
C493        C  0.07150897  0.80406705  0.90285693    -0.06300
Co494      Co  0.49949972  0.71673466  0.94290987     0.73800
N495        N  0.06958548  0.65685722  0.02648605    -0.46500
C496        C  0.40603769  0.87656318  0.00530176     0.43000
N497        N  0.42941331  0.73553707  0.89102409    -0.46500
Co498      Co  0.49699649  0.70930409  0.04213555     0.73900
C499        C  0.42440515  0.72281378  0.09356702    -0.06800
C500        C  0.07091935  0.85603244  0.04464208    -0.06400
N501        N  0.45485248  0.78656470  0.91907750    -0.25900
N502        N  0.06806258  0.77936425  0.10802093    -0.46700
H503        H  0.41969506  0.86335380  0.06863408     0.07000
C504        C  0.42494132  0.66670953  0.95487789    -0.06800
Cl505      Cl  0.49823656  0.76231048  0.99707700    -0.49800
C506        C  0.09342441  0.64640036  0.99752189     0.42700
H507        H  0.41679135  0.82948035  0.89413873     0.06900
N508        N  0.42392477  0.66213789  0.01970018    -0.46500
C509        C  0.36877081  0.62710106  0.98612787    -0.16300
C510        C  0.35643480  0.60739346  0.01654540    -0.31500
H511        H  0.35399678  0.62328571  0.95861011     0.12700
H512        H  0.37256716  0.60891109  0.04353745     0.13300
C513        C  0.14512564  0.91093533  0.03746381    -0.16300
C514        C  0.12029058  0.90275519  0.00861628    -0.31500
H515        H  0.14432802  0.89470217  0.06386837     0.12700
H516        H  0.12348993  0.91762663  0.98153553     0.13300
C517        C  0.35147996  0.91149107  0.03687461    -0.16300
C518        C  0.37313577  0.90419765  0.00534994    -0.31500
H519        H  0.35646649  0.89586163  0.06322108     0.12700
H520        H  0.36655142  0.91910492  0.97886674     0.13300
C521        C  0.12498638  0.61791497  0.00309138    -0.16300
C522        C  0.15350468  0.60994197  0.97767434    -0.31500
H523        H  0.12496057  0.60279868  0.03022468     0.12700
H524        H  0.15598312  0.62609938  0.95133495     0.13300
C525        C  0.33074748  0.78375803  0.18876652    -0.13200
C526        C  0.31331385  0.74825978  0.19650636     0.08900
C527        C  0.32438442  0.71617491  0.17466808    -0.13200
C528        C  0.35330134  0.71906500  0.14650047    -0.13200
C529        C  0.37226287  0.75407389  0.13968933     0.08900
C530        C  0.36024568  0.78662345  0.16064510    -0.13200
H531        H  0.32257162  0.80886722  0.20537293     0.12900
H532        H  0.31079193  0.68864520  0.17963367     0.12900
H533        H  0.36105405  0.69350811  0.13052066     0.12900
H534        H  0.37421987  0.81399267  0.15590652     0.12900
C535        C  0.16632950  0.77841379  0.19097792    -0.13200
C536        C  0.18073125  0.74308383  0.20381992     0.08900
C537        C  0.16411455  0.70934595  0.18855137    -0.13200
C538        C  0.13379623  0.71083804  0.16134223    -0.13200
C539        C  0.11919508  0.74609953  0.14860077     0.08900
C540        C  0.13576957  0.77990963  0.16371714    -0.13200
H541        H  0.17824189  0.80490057  0.20239049     0.12900
H542        H  0.17497536  0.68159035  0.19710033     0.12900
H543        H  0.12191457  0.68419522  0.15035708     0.12900
H544        H  0.12511009  0.80752363  0.15447290     0.12900
C545        C  0.21353541  0.87199088  0.32248697    -0.13200
C546        C  0.24827380  0.88631858  0.33951725     0.08900
C547        C  0.28462046  0.86926177  0.33021862    -0.13200
C548        C  0.28588600  0.83686400  0.30651165    -0.13200
C549        C  0.25094603  0.82143588  0.29131673     0.08900
C550        C  0.21489928  0.83970965  0.29851001    -0.13200
H551        H  0.18513535  0.88469337  0.32884834     0.12900
H552        H  0.31185299  0.87972844  0.34284796     0.12900
H553        H  0.31382308  0.82244383  0.30188624     0.12900
H554        H  0.18760540  0.82750448  0.28769210     0.12900
C555        C  0.28639695  0.62957980  0.34744699    -0.13200
C556        C  0.25293972  0.62533517  0.37065028     0.08900
C557        C  0.22115933  0.65051818  0.36639478    -0.13200
C558        C  0.22226572  0.67870662  0.33841474    -0.13200
C559        C  0.25481903  0.68193959  0.31353479     0.08900
C560        C  0.28734510  0.65744714  0.31907111    -0.13200
H561        H  0.31154283  0.61069931  0.35056845     0.12900
H562        H  0.19534700  0.64831573  0.38451328     0.12900
H563        H  0.19729599  0.69787758  0.33578514     0.12900
H564        H  0.31383445  0.65946865  0.30215994     0.12900
C565        C  0.39087674  0.86615136  0.47861941    -0.16300
C566        C  0.39558335  0.84070365  0.50690312    -0.31500
H567        H  0.40762713  0.86271714  0.45224080     0.12700
H568        H  0.37773637  0.84264247  0.53272586     0.13300
C569        C  0.10365230  0.64016233  0.49267818    -0.16300
C570        C  0.10821516  0.61399272  0.52026074    -0.31500
H571        H  0.12206343  0.63923502  0.46717857     0.12700
H572        H  0.09117910  0.61647925  0.54656317     0.13300
C573        C  0.10859940  0.86773145  0.48007422    -0.16300
C574        C  0.10382418  0.84004581  0.50617099    -0.31500
H575        H  0.09173428  0.86659603  0.45349812     0.12700
H576        H  0.12204241  0.83970359  0.53188534     0.13300
C577        C  0.39838452  0.64085388  0.48914681    -0.16300
C578        C  0.39365683  0.61349945  0.51557650    -0.31500
H579        H  0.38065939  0.64067743  0.46310188     0.12700
H580        H  0.41010130  0.61519209  0.54237263     0.13300
C581        C  0.35151246  0.73129610  0.79209854    -0.13200
C582        C  0.31545114  0.75128350  0.79508747     0.08900
C583        C  0.31164426  0.77885963  0.82465644    -0.13200
C584        C  0.34230394  0.78490363  0.85133742    -0.13200
C585        C  0.37696654  0.76299081  0.84933376     0.08900
C586        C  0.38143032  0.73655959  0.81922621    -0.13200
H587        H  0.35693173  0.71119472  0.76894029     0.12900
H588        H  0.28474456  0.79507164  0.82807146     0.12900
H589        H  0.33828974  0.80552267  0.87440527     0.12900
H590        H  0.40826624  0.71986359  0.81663205     0.12900
C591        C  0.13899535  0.74284117  0.79089374    -0.13200
C592        C  0.17770117  0.75690767  0.79539971     0.08900
C593        C  0.18603227  0.78018641  0.82770485    -0.13200
C594        C  0.15707833  0.78717471  0.85581619    -0.13200
C595        C  0.11950719  0.77062948  0.85226912     0.08900
C596        C  0.11052744  0.74914919  0.81920905    -0.13200
H597        H  0.13075349  0.72607120  0.76586140     0.12900
H598        H  0.21531157  0.79155126  0.83232356     0.12900
H599        H  0.16469531  0.80363479  0.88128042     0.12900
H600        H  0.08155862  0.73644226  0.81569186     0.12900
C601        C  0.21338954  0.82246259  0.67674323    -0.13200
C602        C  0.24808850  0.80863428  0.69366181     0.08900
C603        C  0.28440398  0.82520382  0.68432740    -0.13200
C604        C  0.28615882  0.85449511  0.65729437    -0.13200
C605        C  0.25154530  0.86758196  0.63923638     0.08900
C606        C  0.21504836  0.85191048  0.64995112    -0.13200
H607        H  0.18521273  0.80937764  0.68314757     0.12900
H608        H  0.31151408  0.81425598  0.69662979     0.12900
H609        H  0.31469474  0.86617236  0.64996164     0.12900
H610        H  0.18789721  0.86149823  0.63664842     0.12900
C611        C  0.21401082  0.64075536  0.69457078    -0.13200
C612        C  0.24582020  0.66657237  0.69792818     0.08900
C613        C  0.28030047  0.65878476  0.67658851    -0.13200
C614        C  0.28327783  0.62619868  0.65326991    -0.13200
C615        C  0.25150004  0.60077692  0.64988594     0.08900
C616        C  0.21683279  0.60838278  0.67067021    -0.13200
H617        H  0.18647203  0.64552626  0.70931549     0.12900
H618        H  0.30509132  0.67831243  0.67781269     0.12900
H619        H  0.31017946  0.62146771  0.63719363     0.12900
H620        H  0.19175080  0.58929807  0.66834225     0.12900
C621        C  0.75009060  0.19756631  0.72124527     0.86600
C622        C  0.78581385  0.20212011  0.74801837    -0.53600
C623        C  0.78595338  0.23509378  0.76952817     0.09500
C624        C  0.75000830  0.26108066  0.76153429     0.20500
C625        C  0.71437620  0.20200699  0.74803762    -0.54300
C626        C  0.71450025  0.23478525  0.76961530     0.09600
C627        C  0.74985490  0.23354464  0.69691156    -0.53900
C628        C  0.74988656  0.26671044  0.71756518     0.10200
H629        H  0.80884949  0.18061689  0.74981610     0.14700
H630        H  0.74982870  0.28809805  0.77846810     0.00500
H631        H  0.69140995  0.18094308  0.75145820     0.15000
H632        H  0.75030489  0.23289673  0.66569627     0.14800
C633        C  0.63944901  0.08249383  0.51595469     0.42600
N634        N  0.67025977  0.03482569  0.49092757     0.01500
C635        C  0.78921285  0.41130717  0.59688557    -0.06400
H636        H  0.82545343  0.05472599  0.60606165     0.07000
C637        C  0.85035795  0.06646777  0.46809066    -0.06700
Co638      Co  0.70287878  0.48509299  0.55599748     0.74200
N639        N  0.77942991  0.02126922  0.57899423    -0.25900
Co640      Co  0.80471283  0.48399893  0.54871401     0.74100
C641        C  0.86708662  0.08075362  0.50415862     0.42700
N642        N  0.76479362  0.04133766  0.42257866     0.01100
N643        N  0.83557849  0.02886005  0.51485815     0.01200
N644        N  0.72265265  0.41313222  0.60183338    -0.46800
H645        H  0.65238752  0.06213817  0.57729658     0.07000
N646        N  0.74064923  0.02119687  0.58245722     0.01500
N647        N  0.83091378  0.44584747  0.50983203     0.01200
C648        C  0.86254051  0.39901893  0.48435134     0.42800
N649        N  0.72596709  0.04122410  0.42561615    -0.25400
C650        C  0.65177071  0.41508849  0.53029213    -0.06300
N651        N  0.64999740  0.06606190  0.48223472    -0.46500
N652        N  0.85122638  0.41457539  0.51825212    -0.46700
C653        C  0.63589536  0.40092278  0.49381085     0.42600
N654        N  0.73588045  0.44009249  0.57867625     0.01500
N655        N  0.72387611  0.46158195  0.41938584    -0.25400
N656        N  0.67361817  0.02976750  0.52831401    -0.25900
N657        N  0.76268238  0.46125982  0.41620372     0.01100
H658        H  0.67756589  0.43079451  0.38995768     0.07000
H659        H  0.85103234  0.42074813  0.42324931     0.07000
N660        N  0.77470971  0.43986823  0.57569175    -0.25900
N661        N  0.83138810  0.03427849  0.47764667    -0.25600
N662        N  0.66729285  0.45301352  0.48396669     0.01500
C663        C  0.76007178  0.06482092  0.62122897     0.42900
C664        C  0.71138574  0.07126275  0.40662110    -0.06800
N665        N  0.82839269  0.45171917  0.47245658    -0.25600
H666        H  0.85215226  0.07824794  0.43956121     0.07000
N667        N  0.72780781  0.04676780  0.60757361    -0.46800
H668        H  0.68037716  0.07757582  0.40277629     0.07000
C669        C  0.74283573  0.41977704  0.37453501     0.42700
C670        C  0.65467219  0.05837085  0.54652196    -0.06300
Co671      Co  0.69538391  0.49886013  0.45744946     0.73800
N672        N  0.77797743  0.06998912  0.40169337    -0.46500
C673        C  0.75459368  0.39357335  0.61425985     0.43000
N674        N  0.64630760  0.42600485  0.46651327    -0.46500
Co675      Co  0.79706031  0.49806477  0.45003064     0.73900
C676        C  0.84787932  0.42367986  0.45403250    -0.06800
C677        C  0.79447103  0.04813219  0.60244813    -0.06400
N678        N  0.67071388  0.44744432  0.52129474    -0.25900
N679        N  0.85707208  0.05585158  0.53177378    -0.46700
H680        H  0.82022969  0.40586752  0.60186314     0.07000
C681        C  0.70868136  0.43628651  0.39425627    -0.06800
Cl682      Cl  0.75003740  0.49139535  0.50306083    -0.49800
C683        C  0.74603404  0.09033542  0.39084608     0.42700
H684        H  0.64951774  0.40310760  0.55870640     0.06900
N685        N  0.77531121  0.43668065  0.38968397    -0.46500
N686        N  0.50235678  0.18162677  0.49721039    -0.36500
N687        N  0.93810096  0.24156109  0.49580664    -0.57000
N688        N  0.50317248  0.29960490  0.49953621    -0.36500
N689        N  0.56432370  0.23989593  0.50130439    -0.57000
C690        C  0.96768788  0.16068492  0.48685795     0.27100
C691        C  0.53466623  0.15918855  0.49214149     0.27100
C692        C  0.96712418  0.32232088  0.50509025     0.27100
C693        C  0.53536570  0.32111497  0.50807237     0.27100
C694        C  0.91446060  0.21049614  0.49362131     0.38100
C695        C  0.91419873  0.27240989  0.49887859     0.35700
C696        C  0.58795067  0.20876157  0.49904202     0.35700
C697        C  0.58824460  0.27077874  0.50330496     0.35700
C698        C  0.97974809  0.12414506  0.47628615    -0.21800
C699        C  0.52267656  0.12250882  0.48213663    -0.21800
C700        C  0.97913971  0.35861920  0.51642216    -0.21800
C701        C  0.52325401  0.35755289  0.51900700    -0.21800
C702        C  0.87520476  0.22170712  0.49541035    -0.22800
C703        C  0.87504500  0.26087829  0.49868506    -0.22800
C704        C  0.62721127  0.21994592  0.49966270    -0.22800
C705        C  0.62740607  0.25916961  0.50231885    -0.22800
C706        C  0.92747821  0.17217543  0.48947652    -0.18200
C707        C  0.57487157  0.17042054  0.49538340    -0.18200
C708        C  0.57553066  0.30927262  0.50669860    -0.18200
C709        C  0.92697788  0.31077776  0.50284011    -0.18200
H710        H  0.96139800  0.09995100  0.46854002     0.14700
H711        H  0.54114498  0.09800748  0.47576001     0.14700
H712        H  0.96069654  0.38252518  0.52487064     0.14700
H713        H  0.54152463  0.38137217  0.52805546     0.14700
H714        H  0.84932159  0.20358679  0.49448258     0.13000
H715        H  0.84905060  0.27877035  0.50094674     0.13000
H716        H  0.65305237  0.20178201  0.49804619     0.13000
H717        H  0.65345761  0.27705872  0.50333873     0.13000
H718        H  0.50224481  0.20997004  0.50587086     0.26300
H719        H  0.50334868  0.27175587  0.48923446     0.26300
C720        C  0.75059691  0.21541378  0.28147325     0.86600
C721        C  0.71594573  0.21584903  0.25288133    -0.53600
C722        C  0.71530281  0.24680780  0.22912215     0.09500
C723        C  0.74984630  0.27491285  0.23633451     0.20500
C724        C  0.78712216  0.21861768  0.25553682    -0.54300
C725        C  0.78676686  0.24942050  0.23164642     0.09600
C726        C  0.74816415  0.25362113  0.30279395    -0.53900
C727        C  0.74790369  0.28473419  0.27965936     0.10200
H728        H  0.69412807  0.19316280  0.25113926     0.14700
H729        H  0.74952293  0.30015681  0.21726782     0.00500
H730        H  0.81023702  0.19725090  0.25393963     0.15000
H731        H  0.74668273  0.25593156  0.33391087     0.14800
N732        N  0.74742010  0.45234674  0.99326007    -0.36500
N733        N  0.81110556  0.01315067  0.00347165    -0.57000
N734        N  0.74975627  0.07037721  0.00370662    -0.36500
N735        N  0.69031953  0.00964839  0.00316679    -0.57000
C736        C  0.77971422  0.42988559  0.99665839     0.27100
C737        C  0.71636569  0.43296477  0.00771825     0.27100
C738        C  0.78208104  0.09268292  0.00015387     0.27100
C739        C  0.71851056  0.09007157  0.98987912     0.27100
C740        C  0.83118579  0.47809444  0.98227822     0.35700
C741        C  0.83377000  0.04382842  0.01214168     0.35700
C742        C  0.66478383  0.48259115  0.99666363     0.35700
C743        C  0.66642728  0.04047288  0.00061231     0.35700
C744        C  0.76903312  0.39534278  0.01274616    -0.21800
C745        C  0.72908414  0.39743556  0.02011991    -0.21800
C746        C  0.77127763  0.12750917  0.98468809    -0.21800
C747        C  0.73117363  0.12573646  0.97783204    -0.21800
C748        C  0.86940347  0.48919782  0.97367030    -0.22800
C749        C  0.87232722  0.03235641  0.01906856    -0.22800
C750        C  0.62688033  0.49262294  0.98553128    -0.22800
C751        C  0.62778352  0.02993628  0.00839768    -0.22800
C752        C  0.81832695  0.43981211  0.98505698    -0.18200
C753        C  0.67658905  0.44551438  0.00765349    -0.18200
C754        C  0.67867078  0.07771852  0.99022421    -0.18200
C755        C  0.82090322  0.08225177  0.01077337    -0.18200
H756        H  0.78809039  0.37133521  0.01897246     0.14700
H757        H  0.71133413  0.37509579  0.03264551     0.14700
H758        H  0.79036743  0.15143632  0.97842285     0.14700
H759        H  0.71332044  0.14835730  0.96581698     0.14700
H760        H  0.89404962  0.47104779  0.96583338     0.13000
H761        H  0.89743692  0.05019004  0.02624596     0.13000
H762        H  0.60129308  0.47421586  0.98324429     0.13000
H763        H  0.60160312  0.04763535  0.00795777     0.13000
H764        H  0.74652363  0.47864271  0.97992174     0.26300
H765        H  0.74905467  0.04399263  0.01670580     0.26300
C766        C  0.59334624  0.25399591  0.88426424     0.42600
N767        N  0.54367313  0.23917839  0.91905960     0.01500
C768        C  0.92713511  0.35903865  0.03929821    -0.06400
H769        H  0.58548867  0.36220251  0.06021659     0.07000
C770        C  0.57041085  0.22182499  0.09847917    -0.06700
Co771      Co  0.99812563  0.31332136  0.95236459     0.74200
N772        N  0.54635102  0.33575945  0.01850572    -0.25900
Co773      Co  0.00043099  0.30888843  0.05240527     0.74100
C774        C  0.59222817  0.25475408  0.11339802     0.42700
N775        N  0.53931002  0.17786330  0.01629140     0.01100
N776        N  0.54402755  0.27427156  0.07825165     0.01200
N777        N  0.92395544  0.36134255  0.97436857    -0.46800
H778        H  0.58196286  0.31845697  0.89293718     0.07000
N779        N  0.54591283  0.33564200  0.98058473     0.01500
N780        N  0.95715028  0.27659084  0.08084864     0.01200
C781        C  0.90859725  0.25785527  0.11563971     0.42800
N782        N  0.54118862  0.17855497  0.97847223    -0.25400
C783        C  0.92528243  0.29451249  0.89977473    -0.06300
N784        N  0.57252747  0.22429177  0.89817459    -0.46500
N785        N  0.92867869  0.28915348  0.10397120    -0.46700
C786        C  0.90814068  0.25936200  0.88383904     0.42600
N787        N  0.95443149  0.34041864  0.98606681     0.01500
N788        N  0.95952108  0.18295783  0.97486756    -0.25400
N789        N  0.54412228  0.27686201  0.91944767    -0.25900
N790        N  0.95679773  0.18163658  0.01259374     0.01100
H791        H  0.92599342  0.15751390  0.92855602     0.07000
H792        H  0.92140535  0.19455911  0.10103837     0.07000
N793        N  0.95668410  0.33883593  0.02391360    -0.25900
N794        N  0.54131966  0.23662384  0.07718060    -0.25600
N795        N  0.95807554  0.24504876  0.91902499     0.01500
C796        C  0.59678513  0.36903536  0.99525282     0.42900
C797        C  0.57279797  0.15804271  0.96722567    -0.06800
N798        N  0.95688355  0.23904672  0.07704250    -0.25600
H799        H  0.57507201  0.19169964  0.10339502     0.07000
N800        N  0.57553226  0.35502295  0.96564938    -0.46800
H801        H  0.58224126  0.15349437  0.93789787     0.07000
C802        C  0.90904469  0.14729674  0.99121350     0.42700
C803        C  0.57446759  0.28894094  0.89816246    -0.06300
Co804      Co  0.00216913  0.21428948  0.94738478     0.73800
N805        N  0.56817611  0.15798356  0.03203902    -0.46500
C806        C  0.90538650  0.37351056  0.00671176     0.43000
N807        N  0.93014511  0.23008886  0.89697420    -0.46500
Co808      Co  0.99964086  0.21003813  0.04617387     0.73900
C809        C  0.92750556  0.22467835  0.09786716    -0.06800
C810        C  0.57751550  0.35654749  0.03060533    -0.06400
N811        N  0.95591088  0.28267273  0.92126074    -0.25900
N812        N  0.57395744  0.28639879  0.09992969    -0.46700
H813        H  0.92169990  0.36313107  0.06965183     0.07000
C814        C  0.93091198  0.16187232  0.95898595    -0.06800
Cl815      Cl  0.00009132  0.26166898  0.99957811    -0.49800
C816        C  0.59063468  0.14481095  0.00307646     0.42700
H817        H  0.91674185  0.32393704  0.89539158     0.06900
N818        N  0.92671416  0.16012215  0.02388626    -0.46500
C819        C  0.87640032  0.11988347  0.98772607    -0.16300
C820        C  0.85091807  0.11275158  0.01596873    -0.31500
H821        H  0.87295374  0.10498685  0.96036614     0.12700
H822        H  0.85256163  0.12825091  0.04310268     0.13300
C823        C  0.64515482  0.41759048  0.01704671    -0.16300
C824        C  0.63136341  0.39384352  0.98979848    -0.31500
H825        H  0.63129921  0.41906729  0.04510541     0.12700
H826        H  0.64420962  0.39472767  0.96124874     0.13300
C827        C  0.84831952  0.40914994  0.98036110    -0.16300
C828        C  0.87238875  0.40076271  0.00960000    -0.31500
H829        H  0.85171069  0.39517926  0.95257902     0.12700
H830        H  0.86765293  0.41467439  0.03726748     0.13300
C831        C  0.62546978  0.12074272  0.00955940    -0.16300
C832        C  0.64752846  0.10610461  0.98120681    -0.31500
H833        H  0.63210533  0.11303377  0.03905775     0.12700
H834        H  0.64216500  0.11366662  0.95148423     0.13300
C835        C  0.83325973  0.28846222  0.19115234    -0.13200
C836        C  0.81613984  0.25315622  0.20028610     0.08900
C837        C  0.82792212  0.22034047  0.17980337    -0.13200
C838        C  0.85722908  0.22230573  0.15196504    -0.13200
C839        C  0.87571931  0.25717592  0.14370760     0.08900
C840        C  0.86304635  0.29043937  0.16315219    -0.13200
H841        H  0.82449124  0.31418542  0.20644632     0.12900
H842        H  0.81445854  0.19288511  0.18539403     0.12900
H843        H  0.86545955  0.19617170  0.13721349     0.12900
H844        H  0.87660989  0.31775508  0.15721574     0.12900
C845        C  0.66829086  0.28533500  0.18847450    -0.13200
C846        C  0.68594080  0.25016986  0.19743110     0.08900
C847        C  0.67454254  0.21738175  0.17657727    -0.13200
C848        C  0.64501510  0.21927595  0.14862575    -0.13200
C849        C  0.62594694  0.25401665  0.14076584     0.08900
C850        C  0.63844229  0.28723428  0.16039955    -0.13200
H851        H  0.67659048  0.31104004  0.20407252     0.12900
H852        H  0.68837920  0.19004392  0.18203997     0.12900
H853        H  0.63690730  0.19326478  0.13351324     0.12900
H854        H  0.62441507  0.31444080  0.15480742     0.12900
C855        C  0.70899667  0.36594427  0.33991245    -0.13200
C856        C  0.74307851  0.38813238  0.34585341     0.08900
C857        C  0.77764761  0.37854365  0.32555582    -0.13200
C858        C  0.77844285  0.34644802  0.30102571    -0.13200
C859        C  0.74478967  0.32343396  0.29671289     0.08900
C860        C  0.70997545  0.33376129  0.31586183    -0.13200
H861        H  0.68197385  0.37229482  0.35519585     0.12900
H862        H  0.80433765  0.39516551  0.32953315     0.12900
H863        H  0.80584917  0.33834661  0.28718420     0.12900
H864        H  0.68401473  0.31579057  0.31357382     0.12900
C865        C  0.78312276  0.13314525  0.34698055    -0.13200
C866        C  0.74717471  0.12229174  0.36349802     0.08900
C867        C  0.71267244  0.14205954  0.35347230    -0.13200
C868        C  0.71409298  0.17183515  0.32705743    -0.13200
C869        C  0.74982838  0.18192817  0.30919056     0.08900
C870        C  0.78453686  0.16269893  0.32039097    -0.13200
H871        H  0.81034904  0.11886893  0.35473517     0.12900
H872        H  0.68458323  0.13481767  0.36620333     0.12900
H873        H  0.68708891  0.18707936  0.32058332     0.12900
H874        H  0.81319638  0.17080329  0.30976044     0.12900
C875        C  0.88878243  0.36568477  0.47934912    -0.16300
C876        C  0.89643777  0.34106465  0.50773437    -0.31500
H877        H  0.90294192  0.36164378  0.45164109     0.12700
H878        H  0.88156238  0.34382185  0.53522435     0.13300
C879        C  0.60521159  0.13977407  0.49118640    -0.16300
C880        C  0.61415202  0.11668609  0.52056534    -0.31500
H881        H  0.61809932  0.13482224  0.46303879     0.12700
H882        H  0.60157118  0.12247779  0.54869481     0.13300
C883        C  0.60987150  0.36788749  0.48683464    -0.16300
C884        C  0.60623275  0.33931590  0.51202713    -0.31500
H885        H  0.59226207  0.36751533  0.46069863     0.12700
H886        H  0.62520717  0.33813203  0.53719251     0.13300
C887        C  0.89690344  0.14192924  0.48471281    -0.16300
C888        C  0.89323632  0.11386810  0.51047891    -0.31500
H889        H  0.87803239  0.14257122  0.45945301     0.12700
H890        H  0.91085111  0.11475183  0.53660317     0.13300
C891        C  0.83336808  0.21143250  0.81921421    -0.13200
C892        C  0.81601886  0.24239700  0.80000829     0.08900
C893        C  0.82769334  0.27970915  0.81024878    -0.13200
C894        C  0.85711761  0.28570744  0.83817070    -0.13200
C895        C  0.87529523  0.25445069  0.85615486     0.08900
C896        C  0.86270230  0.21737582  0.84667327    -0.13200
H897        H  0.82421249  0.18234089  0.81327737     0.12900
H898        H  0.81492643  0.30417408  0.79604068     0.12900
H899        H  0.86615268  0.31465003  0.84502733     0.12900
H900        H  0.87569480  0.19271084  0.86039964     0.12900
C901        C  0.67184192  0.20941873  0.82200026    -0.13200
C902        C  0.68557834  0.24087615  0.80099374     0.08900
C903        C  0.67080428  0.27739247  0.80963201    -0.13200
C904        C  0.64140896  0.28204266  0.83751785    -0.13200
C905        C  0.62644420  0.25020052  0.85707772     0.08900
C906        C  0.64244446  0.21399800  0.84950451    -0.13200
H907        H  0.68366682  0.18103765  0.81708011     0.12900
H908        H  0.68096698  0.30207884  0.79398677     0.12900
H909        H  0.62971706  0.31036595  0.84291785     0.12900
H910        H  0.63195863  0.18906207  0.86458452     0.12900
C911        C  0.71749805  0.32368382  0.68877288    -0.13200
C912        C  0.75209250  0.30354195  0.69754726     0.08900
C913        C  0.78768469  0.31403625  0.68015363    -0.13200
C914        C  0.78865322  0.34381882  0.65372953    -0.13200
C915        C  0.75387575  0.36339188  0.64385008     0.08900
C916        C  0.71837235  0.35345582  0.66213671    -0.13200
H917        H  0.68956985  0.31516269  0.70111884     0.12900
H918        H  0.81442687  0.29800376  0.68581135     0.12900
H919        H  0.81644689  0.35056427  0.64015848     0.12900
H920        H  0.69111618  0.36804904  0.65514796     0.12900
C921        C  0.72153442  0.13466300  0.69429127    -0.13200
C922        C  0.75240243  0.16159153  0.69663793     0.08900
C923        C  0.78639672  0.15551702  0.67415195    -0.13200
C924        C  0.78962117  0.12343618  0.65034139    -0.13200
C925        C  0.75854776  0.09718004  0.64803081     0.08900
C926        C  0.72464928  0.10292473  0.67018433    -0.13200
H927        H  0.69429474  0.13777917  0.70981500     0.12900
H928        H  0.81042212  0.17594062  0.67484429     0.12900
H929        H  0.81587596  0.11980434  0.63301551     0.12900
H930        H  0.70023709  0.08295986  0.66861279     0.12900
C931        C  0.74968528  0.70116307  0.72565868     0.86600
C932        C  0.78246782  0.70583686  0.75550928    -0.53600
C933        C  0.78422072  0.74108704  0.77295593     0.09500
C934        C  0.75041469  0.76807542  0.75990255     0.20500
C935        C  0.71213422  0.71000186  0.74856302    -0.54300
C936        C  0.71188361  0.74499805  0.76667327     0.09600
C937        C  0.75469672  0.73458046  0.69836837    -0.53900
C938        C  0.75488751  0.76949397  0.71580118     0.10200
H939        H  0.80224184  0.68248516  0.76236371     0.14700
H940        H  0.75090115  0.79686055  0.77347170     0.00500
H941        H  0.68914163  0.68902420  0.75280715     0.15000
H942        H  0.75746988  0.73091887  0.66745088     0.14800
C943        C  0.63549142  0.58297272  0.52083037     0.42600
N944        N  0.66834074  0.53649955  0.49603285     0.01500
C945        C  0.79301877  0.90977946  0.58918993    -0.06400
H946        H  0.82216634  0.55452935  0.61402295     0.07000
C947        C  0.85033131  0.56627361  0.47562247    -0.06700
Co948      Co  0.70579420  0.98393742  0.55074492     0.74200
N949        N  0.77623150  0.52206174  0.58580570    -0.25900
Co950      Co  0.80758790  0.98338864  0.54196912     0.74100
C951        C  0.86728344  0.57976978  0.51185729     0.42700
N952        N  0.76400148  0.54400054  0.42903919     0.01100
N953        N  0.83368232  0.52909521  0.52209276     0.01200
N954        N  0.72656700  0.91172646  0.59564819    -0.46800
H955        H  0.64678157  0.56169450  0.58219406     0.07000
N956        N  0.73735123  0.52250259  0.58852098     0.01500
N957        N  0.83387688  0.94534901  0.50344975     0.01200
C958        C  0.86599317  0.89869761  0.47836154     0.42800
N959        N  0.72517367  0.54402469  0.43201572    -0.25400
C960        C  0.65182612  0.91553769  0.52784029    -0.06300
N961        N  0.64750228  0.56734020  0.48722963    -0.46500
N962        N  0.85463830  0.91446510  0.51211017    -0.46700
C963        C  0.63399348  0.90132438  0.49230070     0.42600
N964        N  0.73934749  0.93904871  0.57272411     0.01500
N965        N  0.72512453  0.95908497  0.41440250    -0.25400
N966        N  0.67069970  0.53088146  0.53338672    -0.25900
N967        N  0.76400391  0.95917139  0.41150005     0.01100
H968        H  0.67944814  0.92850213  0.38358285     0.07000
H969        H  0.85378812  0.91962007  0.41704673     0.07000
N970        N  0.77813827  0.93890817  0.56904465    -0.25900
N971        N  0.83006045  0.53479958  0.48484650    -0.25600
N972        N  0.66834758  0.95118358  0.47997241     0.01500
C973        C  0.75659287  0.56576465  0.62817247     0.42900
C974        C  0.71077174  0.57492857  0.41434635    -0.06800
N975        N  0.83098235  0.95081095  0.46609615    -0.25600
H976        H  0.85308455  0.57790557  0.44710708     0.07000
N977        N  0.72437593  0.54824784  0.61350122    -0.46800
H978        H  0.67979242  0.58160217  0.41092726     0.07000
C979        C  0.74515003  0.91866006  0.36882916     0.42700
C980        C  0.65032042  0.55864790  0.55145960    -0.06300
Co981      Co  0.69653598  0.99655775  0.45229717     0.73800
N982        N  0.77733533  0.57351733  0.40934445    -0.46500
C983        C  0.75874521  0.89185824  0.60687410     0.43000
N984        N  0.64518137  0.92496434  0.46389601    -0.46500
Co985      Co  0.79849766  0.99649043  0.44391806     0.73900
C986        C  0.85084530  0.92287714  0.44782123    -0.06800
C987        C  0.79113784  0.54845811  0.60991944    -0.06400
N988        N  0.67240412  0.94641513  0.51734436    -0.25900
N989        N  0.85610492  0.55518052  0.53932371    -0.46700
H990        H  0.82409302  0.90401883  0.59345934     0.07000
C991        C  0.71043800  0.93421146  0.38848482    -0.06800
Cl992      Cl  0.75207986  0.98995703  0.49719840    -0.49800
C993        C  0.74545296  0.59457096  0.39937210     0.42700
H994        H  0.64921174  0.90493817  0.55678764     0.06900
N995        N  0.77715942  0.93536612  0.38474773    -0.46500
N996        N  0.50058296  0.68260447  0.50161868    -0.36500
N997        N  0.93927651  0.74007694  0.49799147    -0.57000
N998        N  0.49914324  0.80045886  0.50256790    -0.36500
N999        N  0.56132867  0.74193279  0.50478837    -0.57000
C1000       C  0.96846112  0.65902453  0.49437420     0.27100
C1001       C  0.53330381  0.66095487  0.49563349     0.27100
C1002       C  0.96840398  0.82110109  0.50161929     0.27100
C1003       C  0.53092165  0.82270303  0.51071092     0.27100
C1004       C  0.91546381  0.70908143  0.49774127     0.38100
C1005       C  0.91544416  0.77109416  0.49779439     0.35700
C1006       C  0.58556313  0.71117477  0.50362991     0.35700
C1007       C  0.58466582  0.77323500  0.50693817     0.35700
C1008       C  0.98047466  0.62238236  0.48414684    -0.21800
C1009       C  0.52207113  0.62462753  0.48361348    -0.21800
C1010       C  0.98023738  0.85778970  0.51174444    -0.21800
C1011       C  0.51816952  0.85905321  0.52112648    -0.21800
C1012       C  0.87623420  0.72050771  0.49747889    -0.22800
C1013       C  0.87623154  0.75973551  0.49736673    -0.22800
C1014       C  0.62458888  0.72301901  0.50510882    -0.22800
C1015       C  0.62403421  0.76225945  0.50708958    -0.22800
C1016       C  0.92830949  0.67058326  0.49651165    -0.18200
C1017       C  0.57324118  0.67259197  0.50010788    -0.18200
C1018       C  0.57127106  0.81157722  0.50945480    -0.18200
C1019       C  0.92826965  0.80956712  0.49916754    -0.18200
H1020       H  0.96211616  0.59816199  0.47649531     0.14700
H1021       H  0.54103706  0.60082859  0.47602738     0.14700
H1022       H  0.96169188  0.88197778  0.51905388     0.14700
H1023       H  0.53606417  0.88327627  0.52979669     0.14700
H1024       H  0.85025139  0.70250814  0.49717942     0.13000
H1025       H  0.85027334  0.77780003  0.49721634     0.13000
H1026       H  0.65078339  0.70528690  0.50445655     0.13000
H1027       H  0.64975374  0.78057175  0.50850635     0.13000
H1028       H  0.49985264  0.71041418  0.51204842     0.26300
H1029       H  0.49983235  0.77245376  0.49272815     0.26300
C1030       C  0.74694364  0.71496944  0.28431560     0.86600
C1031       C  0.70972909  0.71624382  0.25889818    -0.53600
C1032       C  0.70924147  0.74534576  0.23283253     0.09500
C1033       C  0.74625557  0.77095086  0.23488020     0.20500
C1034       C  0.78090758  0.71340002  0.25499046    -0.54300
C1035       C  0.78074411  0.74263034  0.22914324     0.09600
C1036       C  0.74963659  0.75460483  0.30268612    -0.53900
C1037       C  0.74920263  0.78379064  0.27717133     0.10200
H1038       H  0.68624959  0.69525470  0.26068013     0.14700
H1039       H  0.74609241  0.79482328  0.21412172     0.00500
H1040       H  0.80271458  0.69072634  0.25385000     0.15000
H1041       H  0.75120828  0.75931196  0.33355776     0.14800
N1042       N  0.75177234  0.95277888  0.01073583    -0.36500
N1043       N  0.80923190  0.50897632  0.99185043    -0.57000
N1044       N  0.75041196  0.56968799  0.98752741    -0.36500
N1045       N  0.68859362  0.51354847  0.99611745    -0.57000
C1046       C  0.78333918  0.93132885  0.00034225     0.27100
C1047       C  0.71961253  0.92988868  0.00979738     0.27100
C1048       C  0.78214257  0.59017527  0.99934802     0.27100
C1049       C  0.71833878  0.59240328  0.99099946     0.27100
C1050       C  0.83495328  0.98227684  0.00503885     0.35700
C1051       C  0.83315200  0.53967367  0.98918144     0.35700
C1052       C  0.66733537  0.97991042  0.01356909     0.35700
C1053       C  0.66624406  0.54308005  0.98388758     0.35700
C1054       C  0.77109294  0.89402998  0.99348033    -0.21800
C1055       C  0.73096653  0.89302971  0.99992538    -0.21800
C1056       C  0.77001333  0.62666531  0.01005075    -0.21800
C1057       C  0.72972187  0.62818737  0.00435670    -0.21800
C1058       C  0.87319615  0.99343044  0.01394521    -0.22800
C1059       C  0.87083038  0.52813146  0.97866465    -0.22800
C1060       C  0.62850364  0.99187982  0.01733240    -0.22800
C1061       C  0.62795656  0.53080140  0.97678538    -0.22800
C1062       C  0.82301718  0.94413093  0.99821666    -0.18200
C1063       C  0.68026941  0.94154218  0.01696576    -0.18200
C1064       C  0.67922970  0.58147686  0.98209446    -0.18200
C1065       C  0.82186922  0.57761400  0.99820874    -0.18200
H1066       H  0.78917753  0.86991942  0.98491068     0.14700
H1067       H  0.71216078  0.86819836  0.99670314     0.14700
H1068       H  0.78833605  0.64996489  0.02034522     0.14700
H1069       H  0.71088577  0.65259366  0.01003131     0.14700
H1070       H  0.89890641  0.97533014  0.01713710     0.13000
H1071       H  0.89674735  0.54572901  0.97492165     0.13000
H1072       H  0.60305595  0.97486850  0.02485206     0.13000
H1073       H  0.60317037  0.54765433  0.96696568     0.13000
H1074       H  0.75209302  0.98110991  0.01921411     0.26300
H1075       H  0.75048106  0.54234856  0.97582970     0.26300
C1076       C  0.58970779  0.76812874  0.88011445     0.42600
N1077       N  0.54237205  0.74967921  0.91629367     0.01500
C1078       C  0.92313968  0.85130461  0.04591578    -0.06400
H1079       H  0.58220311  0.86282232  0.06519999     0.07000
C1080       C  0.56780806  0.72151738  0.09748559    -0.06700
Co1081     Co  0.99778589  0.81430842  0.95796511     0.74200
N1082       N  0.54221133  0.83903853  0.02258843    -0.25900
Co1083     Co  0.99738359  0.80194413  0.05714049     0.74100
C1084       C  0.58733755  0.75410189  0.11592289     0.42700
N1085       N  0.54031960  0.68220582  0.01037455     0.01100
N1086       N  0.54107676  0.77437651  0.07901151     0.01200
N1087       N  0.92278683  0.85990487  0.98153037    -0.46800
H1088       H  0.57711566  0.83156779  0.89350047     0.07000
N1089       N  0.54085083  0.84194407  0.98479219     0.01500
N1090       N  0.95347146  0.76779989  0.08176392     0.01200
C1091       C  0.90331811  0.74796736  0.11363478     0.42800
N1092       N  0.54239885  0.68506168  0.97266167    -0.25400
C1093       C  0.92502659  0.79945117  0.90393192    -0.06300
N1094       N  0.57001122  0.73709530  0.89249747    -0.46500
N1095       N  0.92436181  0.77940351  0.10447989    -0.46700
C1096       C  0.90874670  0.76570456  0.88457288     0.42600
N1097       N  0.95331739  0.83869519  0.99247304     0.01500
N1098       N  0.95901764  0.68270891  0.96942626    -0.25400
N1099       N  0.54168546  0.78732169  0.91938394    -0.25900
N1100       N  0.95564044  0.67834914  0.00685988     0.01100
H1101       H  0.92560175  0.66150449  0.92088937     0.07000
H1102       H  0.91543078  0.68531527  0.09568226     0.07000
N1103       N  0.95412021  0.83366381  0.03000144    -0.25900
N1104       N  0.53972757  0.73683106  0.07540089    -0.25600
N1105       N  0.95884443  0.74889257  0.91829939     0.01500
C1106       C  0.59152706  0.87501030  0.00072419     0.42900
C1107       C  0.57340270  0.66408933  0.96045446    -0.06800
N1108       N  0.95296082  0.73054335  0.07563242    -0.25600
H1109       H  0.57281800  0.69123256  0.10090492     0.07000
N1110       N  0.56941541  0.86331131  0.97079142    -0.46800
H1111       H  0.58220978  0.65990498  0.93088011     0.07000
C1112       C  0.90794315  0.64618011  0.98230392     0.42700
C1113       C  0.57096957  0.80158510  0.89775532    -0.06300
Co1114     Co  0.00242474  0.71613906  0.94515019     0.73800
N1115       N  0.56788281  0.65995325  0.02501482    -0.46500
C1116       C  0.90253127  0.86846505  0.01400584     0.43000
N1117       N  0.93138728  0.73567283  0.89464542    -0.46500
Co1118     Co  0.99709211  0.70396477  0.04373593     0.73900
C1119       C  0.92243350  0.71542716  0.09459923    -0.06800
C1120       C  0.57360224  0.85916056  0.03545745    -0.06400
N1121       N  0.95607727  0.78614710  0.92399310    -0.25900
N1122       N  0.56901153  0.78601186  0.10327626    -0.46700
H1123       H  0.91610684  0.85216977  0.07618191     0.07000
C1124       C  0.93029500  0.66325849  0.95158746    -0.06800
Cl1125     Cl  0.99879720  0.75911125  0.00099871    -0.49800
C1126       C  0.59018525  0.64774759  0.99557499     0.42700
H1127       H  0.91592531  0.82902007  0.90218281     0.06900
N1128       N  0.92526814  0.65627093  0.01600004    -0.46500
C1129       C  0.87406010  0.62053104  0.97676212    -0.16300
C1130       C  0.85352867  0.60594904  0.00586561    -0.31500
H1131       H  0.86630187  0.61244385  0.94747202     0.12700
H1132       H  0.86004165  0.61422086  0.03535458     0.13300
C1133       C  0.65008029  0.91145010  0.02373431    -0.16300
C1134       C  0.62378879  0.90275960  0.99623266    -0.31500
H1135       H  0.65007055  0.89636947  0.05083206     0.12700
H1136       H  0.62598245  0.91691909  0.96867010     0.13300
C1137       C  0.85466923  0.91584319  0.99009561    -0.16300
C1138       C  0.86692543  0.89229598  0.01764612    -0.31500
H1139       H  0.87101126  0.91793597  0.96340147     0.12700
H1140       H  0.85197324  0.89273040  0.04523279     0.13300
C1141       C  0.62126342  0.61892798  0.00061893    -0.16300
C1142       C  0.64965572  0.61197373  0.97488266    -0.31500
H1143       H  0.62117901  0.60301948  0.02728093     0.12700
H1144       H  0.65217371  0.62925940  0.94927689     0.13300
C1145       C  0.82680213  0.77985465  0.18701616    -0.13200
C1146       C  0.80998329  0.74481846  0.19747511     0.08900
C1147       C  0.82229092  0.71130269  0.17840447    -0.13200
C1148       C  0.85182096  0.71250506  0.15053183    -0.13200
C1149       C  0.86993799  0.74725661  0.14113327     0.08900
C1150       C  0.85667124  0.78104628  0.15920005    -0.13200
H1151       H  0.81785152  0.80609744  0.20127730     0.12900
H1152       H  0.80918160  0.68398210  0.18521507     0.12900
H1153       H  0.86080864  0.68600274  0.13688425     0.12900
H1154       H  0.86991196  0.80830156  0.15237789     0.12900
C1155       C  0.66509229  0.78421821  0.18946783    -0.13200
C1156       C  0.67812536  0.74853762  0.20278672     0.08900
C1157       C  0.66166246  0.71519276  0.18672381    -0.13200
C1158       C  0.63250026  0.71725478  0.15856081    -0.13200
C1159       C  0.61888836  0.75274221  0.14549680     0.08900
C1160       C  0.63552752  0.78630899  0.16115314    -0.13200
H1161       H  0.67723859  0.81041417  0.20135175     0.12900
H1162       H  0.67173570  0.68723083  0.19550030     0.12900
H1163       H  0.62072131  0.69076056  0.14716095     0.12900
H1164       H  0.62565716  0.81408567  0.15158176     0.12900
C1165       C  0.71277858  0.87544171  0.32031099    -0.13200
C1166       C  0.74703893  0.88829728  0.33923258     0.08900
C1167       C  0.78324745  0.87021484  0.33147211    -0.13200
C1168       C  0.78458986  0.83781979  0.30783216    -0.13200
C1169       C  0.74992796  0.82353904  0.29104282     0.08900
C1170       C  0.71427104  0.84323842  0.29621157    -0.13200
H1171       H  0.68460739  0.88918431  0.32538797     0.12900
H1172       H  0.81015233  0.87965671  0.34552115     0.12900
H1173       H  0.81217971  0.82242789  0.30464003     0.12900
H1174       H  0.68716292  0.83205152  0.28393273     0.12900
C1175       C  0.78167946  0.63759882  0.35464126    -0.13200
C1176       C  0.74616857  0.62677426  0.37206874     0.08900
C1177       C  0.71133570  0.64618879  0.36219893    -0.13200
C1178       C  0.71178656  0.67464603  0.33426071    -0.13200
C1179       C  0.74685096  0.68369552  0.31463320     0.08900
C1180       C  0.78210930  0.66590400  0.32657847    -0.13200
H1181       H  0.80920501  0.62389432  0.36241616     0.12900
H1182       H  0.68361249  0.63937144  0.37588532     0.12900
H1183       H  0.68449278  0.68942410  0.32789475     0.12900
H1184       H  0.81031981  0.67390695  0.31470735     0.12900
C1185       C  0.89255582  0.86555206  0.47403766    -0.16300
C1186       C  0.89765462  0.84001801  0.50215753    -0.31500
H1187       H  0.90890121  0.86236897  0.44739463     0.12700
H1188       H  0.87998453  0.84177769  0.52811629     0.13300
C1189       C  0.60418781  0.64229713  0.49724795    -0.16300
C1190       C  0.60865072  0.61609119  0.52493132    -0.31500
H1191       H  0.62244633  0.64105910  0.47165837     0.12700
H1192       H  0.59161882  0.61876677  0.55121355     0.13300
C1193       C  0.60600026  0.86937161  0.48732933    -0.16300
C1194       C  0.60156415  0.84216142  0.51394781    -0.31500
H1195       H  0.58838262  0.86820088  0.46122159     0.12700
H1196       H  0.62056858  0.84173321  0.53912030     0.13300
C1197       C  0.89762687  0.64038407  0.49254473    -0.16300
C1198       C  0.89422071  0.61223363  0.51823763    -0.31500
H1199       H  0.87804485  0.64131825  0.46781255     0.12700
H1200       H  0.91231276  0.61265123  0.54406082     0.13300
C1201       C  0.85274836  0.73060354  0.79823154    -0.13200
C1202       C  0.81696802  0.75110361  0.80020673     0.08900
C1203       C  0.81312763  0.77975166  0.82870636    -0.13200
C1204       C  0.84357564  0.78603448  0.85568372    -0.13200
C1205       C  0.87777875  0.76324519  0.85482010     0.08900
C1206       C  0.88218058  0.73599971  0.82555201    -0.13200
H1207       H  0.85839041  0.70993008  0.77563690     0.12900
H1208       H  0.78637265  0.79646860  0.83098565     0.12900
H1209       H  0.83974501  0.80747197  0.87801741     0.12900
H1210       H  0.90868651  0.71872385  0.82367492     0.12900
C1211       C  0.64121743  0.73971136  0.78845903    -0.13200
C1212       C  0.67886217  0.75641180  0.79300443     0.08900
C1213       C  0.68517113  0.78091668  0.82477734    -0.13200
C1214       C  0.65544221  0.78647396  0.85241575    -0.13200
C1215       C  0.61935102  0.76696918  0.84911118     0.08900
C1216       C  0.61226144  0.74421673  0.81655799    -0.13200
H1217       H  0.63422011  0.72212388  0.76364187     0.12900
H1218       H  0.71351858  0.79438627  0.82937702     0.12900
H1219       H  0.66137954  0.80434226  0.87734281     0.12900
H1220       H  0.58429232  0.72956038  0.81302006     0.12900
C1221       C  0.72683569  0.83001786  0.69008219    -0.13200
C1222       C  0.75851906  0.80440809  0.69262768     0.08900
C1223       C  0.79090349  0.80855658  0.66792619    -0.13200
C1224       C  0.79131074  0.83748080  0.64055342    -0.13200
C1225       C  0.75892778  0.86224635  0.63685510     0.08900
C1226       C  0.72685239  0.85853926  0.66212330    -0.13200
H1227       H  0.70127889  0.82670800  0.70838258     0.12900
H1228       H  0.81534208  0.78859401  0.66909697     0.12900
H1229       H  0.81636003  0.83960267  0.62144134     0.12900
H1230       H  0.70162917  0.87744739  0.66001481     0.12900
C1231       C  0.71658946  0.64395817  0.69246873    -0.13200
C1232       C  0.75118024  0.66334527  0.70382728     0.08900
C1233       C  0.78772560  0.64988798  0.68987651    -0.13200
C1234       C  0.78976095  0.61747515  0.66632620    -0.13200
C1235       C  0.75517448  0.59833803  0.65523203     0.08900
C1236       C  0.71865132  0.61169994  0.66870759    -0.13200
H1237       H  0.68763848  0.65430452  0.70027663     0.12900
H1238       H  0.81482502  0.66501486  0.69649421     0.12900
H1239       H  0.81833539  0.60816186  0.65602280     0.12900
H1240       H  0.69143534  0.59780373  0.66003978     0.12900
loop_ 
_geom_bond_atom_site_label_1 
_geom_bond_atom_site_label_2 
_geom_bond_distance 
_geom_bond_site_symmetry_2 
_ccdc_geom_bond_type 
C1            C2   1.534       .  S
C1            C7   1.524       .  S
C1            C5   1.538       .  S
C1          C302   1.523       .  S
C2            H9   1.086       .  S
C2            C3   1.370       .  D
C3            C4   1.546       .  S
C3          C272   1.489       .  S
C4            C8   1.544       .  S
C4            C6   1.542       .  S
C4           H10   1.110       .  S
C5           H11   1.081       .  S
C5            C6   1.369       .  D
C6          C282   1.482       .  S
C7           H12   1.087       .  S
C7            C8   1.359       .  D
C8          C292   1.472       .  S
C13         C260   1.477       .  S
C13          N31   1.352       .  A
C13          C50   1.456       .  S
N14          N31   1.328       .  A
N14          N36   1.320       .  A
N14        Co361   2.088   1_545  S
C15          N40   1.339       .  A
C15          C53   1.461       .  S
C15          H60   1.081       .  S
H16          C57   1.081       .  S
C17          N41   1.343       .  A
C17          C21   1.461       .  S
C17          H46   1.081       .  S
Co18         N58   2.089       .  S
Co18         N34   2.084       .  S
Co18        N346   2.085       .  S
Co18        N336   2.084       .  S
Co18        Cl62   2.454       .  S
N19          C57   1.338       .  A
N19          N26   1.321       .  A
N19        Co330   2.079   1_545  S
Co20         N40   2.083       .  S
Co20         N27   2.102       .  S
Co20        N329   2.097       .  S
Co20        N333   2.092       .  S
Co20        Cl62   2.450       .  S
C21         C268   1.476       .  S
C21          N59   1.349       .  A
N22          N29   1.320       .  A
N22          N52   1.324       .  A
N22        Co365   2.084   1_545  S
N23          N41   1.319       .  A
N23          N59   1.326       .  A
N23        Co330   2.090   1_545  S
N24          C53   1.351       .  A
N24          N34   1.326       .  A
H25          C50   1.081       .  S
N26          N47   1.323       .  A
N26        Co328   2.085   1_545  S
N27          N45   1.321       .  A
N27          N32   1.329       .  A
C28         C255   1.478       .  S
C28          N32   1.354       .  A
C28          C56   1.455       .  S
N29          C44   1.340       .  A
N29        Co361   2.083   1_545  S
C30          N58   1.342       .  A
C30          C33   1.461       .  S
C30          H64   1.081       .  S
C33         C263   1.474       .  S
C33          N54   1.349       .  A
N34          N40   1.320       .  A
N35          C61   1.341       .  A
N35          N37   1.320       .  A
N35         Co51   2.085       .  S
N36          C50   1.342       .  A
N36        Co328   2.091   1_545  S
N37          N65   1.323       .  A
N37         Co55   2.079       .  S
H38          C61   1.081       .  S
H39          C56   1.082       .  S
N41        Co365   2.084   1_545  S
N42          N54   1.325       .  A
N42          N58   1.321       .  A
N42         Co51   2.092       .  S
C43          N47   1.349       .  A
C43          C57   1.457       .  S
C43         C305   1.470       .  S
C44          C63   1.461       .  S
C44          H48   1.081       .  S
N45          C56   1.340       .  A
N45         Co55   2.085       .  S
C49          N65   1.349       .  A
C49          C61   1.461       .  S
C49         C236   1.474       .  S
Co51        N324   2.083       .  S
Co51        N339   2.082       .  S
Co51        Cl62   2.453       .  S
N52          C63   1.350       .  A
C53         C295   1.478       .  S
Co55        N332   2.073       .  S
Co55        N351   2.077       .  S
Co55        Cl62   2.451       .  S
C63         C246   1.476       .  S
N66          C71   1.357   1_655  A
N66         C690   1.356       .  A
N66          H98   1.033       .  S
N67          C74   1.353       .  A
N67          C75   1.353       .  A
N68          C73   1.356   1_655  A
N68         C692   1.357       .  A
N68          H99   1.033       .  S
N69          C76   1.353       .  A
N69          C77   1.352       .  A
C70         N686   1.356       .  A
C70          C78   1.388       .  A
C70          C86   1.423       .  A
C71          C87   1.421       .  A
C71          C79   1.387       .  A
C72         N688   1.357       .  A
C72          C80   1.387       .  A
C72          C89   1.421       .  A
C73          C88   1.422       .  A
C73          C81   1.388       .  A
C74          C86   1.419       .  A
C74          C82   1.387       .  A
C75          C89   1.417       .  A
C75          C83   1.386       .  A
C76          C84   1.386       .  A
C76          C87   1.418       .  A
C77          C85   1.387       .  A
C77          C88   1.418       .  A
C78          H90   1.082       .  S
C78         C699   1.371       .  A
C79          H91   1.082       .  S
C79         C698   1.370   1_455  A
C80          H92   1.082       .  S
C80         C701   1.370       .  A
C81          H93   1.082       .  S
C81         C700   1.371   1_455  A
C82          H94   1.082       .  S
C82          C83   1.374       .  A
C83          H95   1.082       .  S
C84          H96   1.082       .  S
C84          C85   1.374       .  A
C85          H97   1.082       .  S
C86         C267   1.492       .  S
C87         C259   1.493       .  S
C88         C264   1.489       .  S
C89         C256   1.492       .  S
C100        C101   1.536       .  S
C100        C106   1.526       .  S
C100        C104   1.539       .  S
C100        C249   1.526       .  S
C101        H108   1.086       .  S
C101        C102   1.370       .  D
C102        C103   1.542       .  S
C102        C226   1.487       .  S
C103        C107   1.533       .  S
C103        C105   1.545       .  S
C103        H109   1.108       .  S
C104        H110   1.080       .  S
C104        C105   1.372       .  D
C105        C216   1.492       .  S
C106        H111   1.087       .  S
C106        C107   1.358       .  D
C107        C239   1.464       .  S
N112        C117   1.353       .  A
N112        C116   1.354       .  A
N112        H144   1.035       .  S
N113        C121   1.351       .  A
N113        C430   1.351   1_545  A
N114        C119   1.355   1_554  A
N114        C118   1.354       .  A
N114        H145   1.035       .  S
N115        C123   1.354       .  A
N115        C432   1.353   1_545  A
C116        C124   1.387       .  A
C116        C132   1.417       .  A
C117        C133   1.420       .  A
C117        C125   1.389       .  A
C118        C126   1.388   1_554  A
C118        C135   1.421       .  A
C119        C134   1.419       .  A
C119        C127   1.387       .  A
C120        N423   1.352       .  A
C120        C132   1.417       .  A
C120        C128   1.388       .  A
C121        C135   1.415       .  A
C121        C129   1.388       .  A
C122        N425   1.353       .  A
C122        C130   1.388   1_554  A
C122        C133   1.422       .  A
C123        C131   1.387       .  A
C123        C134   1.419   1_554  A
C124        H136   1.082       .  S
C124        C125   1.378       .  A
C125        H137   1.082       .  S
C126        H138   1.081       .  S
C126        C127   1.379       .  A
C127        H139   1.082       .  S
C128        H140   1.081       .  S
C128        C439   1.370       .  A
C129        H141   1.082       .  S
C129        C438   1.373   1_545  A
C130        H142   1.081       .  S
C130        C441   1.371       .  A
C131        H143   1.082       .  S
C131        C440   1.372   1_545  A
C132        C207   1.488       .  S
C133        C203   1.489       .  S
C134        C212   1.493       .  S
C135        C200   1.489       .  S
C146        N164   1.345       .  A
C146        C183   1.467       .  S
C146        C285   1.476       .  S
N147        N164   1.318       .  A
N147        N169   1.320       .  A
N147       Co804   2.061       .  S
C148        N173   1.342       .  A
C148        C186   1.461   1_554  S
C148        H193   1.081       .  S
H149        C190   1.081       .  S
C150        N174   1.335       .  A
C150        C154   1.459       .  S
C150        H179   1.080       .  S
Co151       N191   2.089       .  S
Co151       N167   2.083       .  S
Co151       N789   2.078       .  S
Co151       N779   2.078       .  S
Co151      Cl195   2.449       .  S
N152        C190   1.346       .  A
N152        N159   1.322   1_554  A
N152       Co773   2.101       .  S
Co153       N173   2.089       .  S
Co153       N160   2.090       .  S
Co153       N772   2.097       .  S
Co153       N776   2.101       .  S
Co153      Cl195   2.459   1_554  S
C154        N192   1.355       .  A
C154        C229   1.484       .  S
N155        N162   1.319   1_554  A
N155        N185   1.320       .  A
N155       Co808   2.068   1_455  S
N156        N174   1.319       .  A
N156        N192   1.330       .  A
N156       Co773   2.091       .  S
N157        C186   1.348       .  A
N157        N167   1.324       .  A
H158        C183   1.081       .  S
N159        N180   1.322       .  A
N159       Co771   2.076   1_455  S
N160        N178   1.320       .  A
N160        N165   1.326       .  A
C161        N165   1.349       .  A
C161        C189   1.454       .  S
C161        C219   1.463       .  S
N162        C177   1.352       .  A
N162       Co804   2.109       .  S
C163        N191   1.345       .  A
C163        C166   1.464       .  S
C163        H197   1.081       .  S
C166        N187   1.350       .  A
C166        C275   1.482       .  S
N167        N173   1.320   1_556  A
N168        C194   1.338       .  A
N168        N170   1.320   1_556  A
N168       Co184   2.078       .  S
N169        C183   1.347       .  A
N169       Co771   2.103   1_455  S
N170        N198   1.329       .  A
N170       Co188   2.102       .  S
H171        C194   1.081       .  S
H172        C189   1.082       .  S
N174       Co808   2.085   1_455  S
N175        N187   1.323       .  A
N175        N191   1.319       .  A
N175       Co184   2.089       .  S
C176        C204   1.472       .  S
C176        N180   1.344       .  A
C176        C190   1.466   1_556  S
C177        C196   1.473   1_556  S
C177        H181   1.081       .  S
N178        C189   1.336       .  A
N178       Co188   2.071       .  S
C182        C199   1.476       .  S
C182        N198   1.355   1_556  A
C182        C194   1.451       .  S
Co184       N767   2.081       .  S
Co184       N782   2.092       .  S
Co184      Cl195   2.450       .  S
N185        C196   1.341       .  A
C186        C208   1.473       .  S
Co188       N775   2.069       .  S
Co188       N794   2.087       .  S
Co188      Cl195   2.447   1_554  S
C196        C211   1.476       .  S
C199        H201   1.087       .  S
C199        C200   1.340   1_556  D
C200        H202   1.086       .  S
C203        H205   1.086       .  S
C203        C204   1.339   1_554  D
C204        H206   1.087       .  S
C207        H209   1.086       .  S
C207        C208   1.343   1_554  D
C208        H210   1.087       .  S
C211        H213   1.088       .  S
C211        C212   1.339   1_554  D
C212        H214   1.086       .  S
C215        H221   1.081       .  S
C215        C216   1.409       .  A
C215        C220   1.401       .  A
C216        C217   1.409       .  A
C217        H222   1.081       .  S
C217        C218   1.392       .  A
C218        H223   1.084       .  S
C218        C219   1.397       .  A
C219        C220   1.400       .  A
C220        H224   1.083       .  S
C225        H231   1.083       .  S
C225        C226   1.407       .  A
C225        C230   1.407       .  A
C226        C227   1.402       .  A
C227        H232   1.083       .  S
C227        C228   1.391       .  A
C228        H233   1.081       .  S
C228        C229   1.404       .  A
C229        C230   1.407       .  A
C230        H234   1.083       .  S
C235        H241   1.082       .  S
C235        C236   1.406       .  A
C235        C240   1.398       .  A
C236        C237   1.405       .  A
C237        H242   1.083       .  S
C237        C238   1.394       .  A
C238        H243   1.084       .  S
C238        C239   1.399       .  A
C239        C240   1.399       .  A
C240        H244   1.083       .  S
C245        H251   1.083       .  S
C245        C246   1.402       .  A
C245        C250   1.397       .  A
C246        C247   1.402       .  A
C247        H252   1.082       .  S
C247        C248   1.397       .  A
C248        H253   1.083       .  S
C248        C249   1.408       .  A
C249        C250   1.411       .  A
C250        H254   1.078       .  S
C255        H257   1.087       .  S
C255        C256   1.342       .  D
C256        H258   1.086       .  S
C259        H261   1.086       .  S
C259        C260   1.344       .  D
C260        H262   1.087       .  S
C263        H265   1.087       .  S
C263        C264   1.343       .  D
C264        H266   1.086       .  S
C267        H269   1.086       .  S
C267        C268   1.344       .  D
C268        H270   1.087       .  S
C271        H277   1.083       .  S
C271        C272   1.406       .  A
C271        C276   1.393       .  A
C272        C273   1.406       .  A
C273        H278   1.083       .  S
C273        C274   1.406       .  A
C274        H279   1.082       .  S
C274        C275   1.408       .  A
C275        C276   1.402       .  A
C276        H280   1.083       .  S
C281        H287   1.083       .  S
C281        C282   1.403       .  A
C281        C286   1.388       .  A
C282        C283   1.405       .  A
C283        H288   1.083       .  S
C283        C284   1.405       .  A
C284        H289   1.082       .  S
C284        C285   1.406       .  A
C285        C286   1.403       .  A
C286        H290   1.083       .  S
C291        H297   1.083       .  S
C291        C292   1.402       .  A
C291        C296   1.403       .  A
C292        C293   1.402       .  A
C293        H298   1.084       .  S
C293        C294   1.394       .  A
C294        H299   1.082       .  S
C294        C295   1.403       .  A
C295        C296   1.408       .  A
C296        H300   1.083       .  S
C301        H307   1.076       .  S
C301        C302   1.411       .  A
C301        C306   1.396       .  A
C302        C303   1.409       .  A
C303        H308   1.083       .  S
C303        C304   1.394       .  A
C304        H309   1.083       .  S
C304        C305   1.400       .  A
C305        C306   1.400       .  A
C306        H310   1.083       .  S
C311        C312   1.533       .  S
C311        C317   1.528       .  S
C311        C315   1.542       .  S
C311        C612   1.531       .  S
C312        H319   1.084       .  S
C312        C313   1.371       .  D
C313        C314   1.551       .  S
C313        C582   1.501       .  S
C314        C318   1.540       .  S
C314        C316   1.550       .  S
C314        H320   1.108       .  S
C315        H321   1.081       .  S
C315        C316   1.376       .  D
C316        C592   1.500       .  S
C317        H322   1.087       .  S
C317        C318   1.358       .  D
C318        C602   1.472       .  S
C323        C570   1.473       .  S
C323        N341   1.350       .  A
C323        C360   1.455       .  S
N324        N341   1.326       .  A
N324        N346   1.319       .  A
C325        N350   1.341       .  A
C325        C363   1.462       .  S
C325        H370   1.081       .  S
H326        C367   1.081       .  S
C327        N351   1.341       .  A
C327        C331   1.458       .  S
C327        H356   1.081       .  S
Co328       N368   2.090       .  S
Co328       N344   2.086       .  S
Co328      Cl372   2.452       .  S
N329        C367   1.343       .  A
N329        N336   1.321       .  A
Co330       N350   2.083       .  S
Co330       N337   2.091       .  S
Co330      Cl372   2.452       .  S
C331        C578   1.475       .  S
C331        N369   1.350       .  A
N332        N339   1.319       .  A
N332        N362   1.321       .  A
N333        N351   1.318       .  A
N333        N369   1.326       .  A
N334        C363   1.351       .  A
N334        N344   1.325       .  A
H335        C360   1.081       .  S
N336        N357   1.324       .  A
N337        N355   1.321       .  A
N337        N342   1.327       .  A
C338        C565   1.476       .  S
C338        N342   1.352       .  A
C338        C366   1.457       .  S
N339        C354   1.340       .  A
C340        N368   1.343       .  A
C340        C343   1.462       .  S
C340        H374   1.081       .  S
C343        C573   1.478       .  S
C343        N364   1.350       .  A
N344        N350   1.320       .  A
N345        C371   1.340       .  A
N345        N347   1.320       .  A
N345       Co361   2.085       .  S
N346        C360   1.341       .  A
N347        N375   1.324       .  A
N347       Co365   2.084       .  S
H348        C371   1.081       .  S
H349        C366   1.081       .  S
N352        N364   1.326       .  A
N352        N368   1.321       .  A
N352       Co361   2.097       .  S
C353        N357   1.349       .  A
C353        C367   1.464       .  S
C353        C615   1.480       .  S
C354        C373   1.461       .  S
C354        H358   1.081       .  S
N355        C366   1.341       .  A
N355       Co365   2.092       .  S
C359        N375   1.350       .  A
C359        C371   1.461       .  S
C359        C546   1.477       .  S
Co361      Cl372   2.454       .  S
N362        C373   1.347       .  A
C363        C605   1.481       .  S
Co365      Cl372   2.452       .  S
C373        C556   1.469       .  S
N376        C381   1.356       .  A
N376       C1000   1.356   1_455  A
N376        H408   1.036       .  S
N377        C384   1.352       .  A
N377        C385   1.353       .  A
N378        C383   1.358       .  A
N378       C1002   1.357   1_455  A
N378        H409   1.036       .  S
N379        C386   1.352       .  A
N379        C387   1.353       .  A
C380        N996   1.356       .  A
C380        C388   1.388       .  A
C380        C396   1.421       .  A
C381        C397   1.420       .  A
C381        C389   1.387       .  A
C382        N998   1.357       .  A
C382        C390   1.388       .  A
C382        C399   1.421       .  A
C383        C398   1.422       .  A
C383        C391   1.388       .  A
C384        C396   1.417       .  A
C384        C392   1.387       .  A
C385        C399   1.417       .  A
C385        C393   1.386       .  A
C386        C394   1.386       .  A
C386        C397   1.416       .  A
C387        C395   1.387       .  A
C387        C398   1.417       .  A
C388        H400   1.082       .  S
C388       C1009   1.370       .  A
C389        H401   1.082       .  S
C389       C1008   1.369   1_455  A
C390        H402   1.082       .  S
C390       C1011   1.371       .  A
C391        H403   1.082       .  S
C391       C1010   1.369   1_455  A
C392        H404   1.082       .  S
C392        C393   1.374       .  A
C393        H405   1.082       .  S
C394        H406   1.082       .  S
C394        C395   1.373       .  A
C395        H407   1.082       .  S
C396        C577   1.490       .  S
C397        C569   1.489       .  S
C398        C574   1.494       .  S
C399        C566   1.491       .  S
C410        C411   1.537       .  S
C410        C416   1.525       .  S
C410        C414   1.541       .  S
C410        C559   1.522       .  S
C411        H418   1.086       .  S
C411        C412   1.370       .  D
C412        C413   1.547       .  S
C412        C536   1.491       .  S
C413        C417   1.538       .  S
C413        C415   1.540       .  S
C413        H419   1.110       .  S
C414        H420   1.082       .  S
C414        C415   1.368       .  D
C415        C526   1.481       .  S
C416        H421   1.087       .  S
C416        C417   1.358       .  D
C417        C549   1.467       .  S
N422        C427   1.351       .  A
N422        C426   1.354       .  A
N422        H454   1.036       .  S
N423        C431   1.350       .  A
N424        C429   1.353       .  A
N424        C428   1.353   1_556  A
N424        H455   1.036       .  S
N425        C433   1.354   1_554  A
C426        C434   1.388       .  A
C426        C442   1.415       .  A
C427        C443   1.413       .  A
C427        C435   1.387       .  A
C428        C436   1.388       .  A
C428        C445   1.416       .  A
C429        C444   1.415       .  A
C429        C437   1.387   1_556  A
C430        C442   1.412       .  A
C430        C438   1.385       .  A
C431        C445   1.412       .  A
C431        C439   1.386       .  A
C432        C440   1.387       .  A
C432        C443   1.419       .  A
C433        C441   1.385       .  A
C433        C444   1.419       .  A
C434        H446   1.082       .  S
C434        C435   1.377       .  A
C435        H447   1.083       .  S
C436        H448   1.082       .  S
C436        C437   1.377       .  A
C437        H449   1.082       .  S
C438        H450   1.083       .  S
C439        H451   1.082       .  S
C440        H452   1.082       .  S
C441        H453   1.082       .  S
C442        C517   1.484       .  S
C443        C513   1.486       .  S
C444        C522   1.493       .  S
C445        C510   1.481       .  S
C456        N474   1.347       .  A
C456        C493   1.467       .  S
C456        C595   1.478       .  S
N457        N474   1.322       .  A
N457        N479   1.321       .  A
N457      Co1114   2.073       .  S
C458        N483   1.339       .  A
C458        C496   1.457       .  S
C458        H503   1.081       .  S
H459        C500   1.081       .  S
C460        N484   1.340       .  A
C460        C464   1.462       .  S
C460        H489   1.081       .  S
Co461      N1099   2.104       .  S
Co461      N1089   2.072       .  S
Co461       N501   2.094       .  S
Co461       N477   2.097       .  S
Co461      Cl505   2.446       .  S
N462        C500   1.347       .  A
N462        N469   1.322   1_554  A
N462      Co1083   2.104   1_455  S
Co463      N1082   2.107       .  S
Co463      N1086   2.090       .  S
Co463       N483   2.078       .  S
Co463       N470   2.106       .  S
Co463      Cl505   2.463   1_554  S
C464        N502   1.353       .  A
C464        C539   1.485       .  S
N465        N472   1.321   1_554  A
N465        N495   1.320       .  A
N465      Co1118   2.070   1_455  S
N466        N484   1.319       .  A
N466        N502   1.327       .  A
N466      Co1083   2.088   1_455  S
N467        C496   1.352   1_556  A
N467        N477   1.327       .  A
H468        C493   1.081       .  S
N469        N490   1.320       .  A
N469      Co1081   2.066   1_455  S
N470        N488   1.319       .  A
N470        N475   1.330       .  A
C471        N475   1.356       .  A
C471        C499   1.457       .  S
C471        C529   1.483       .  S
N472        C487   1.351       .  A
N472      Co1114   2.111       .  S
C473        N501   1.347       .  A
C473        C476   1.464       .  S
C473        H507   1.081       .  S
C476        N497   1.348       .  A
C476        C585   1.477       .  S
N477        N483   1.321   1_556  A
N478        C504   1.339       .  A
N478        N480   1.320   1_556  A
N478       Co494   2.079       .  S
N479        C493   1.350       .  A
N479      Co1081   2.114   1_455  S
N480        N508   1.326       .  A
N480       Co498   2.084       .  S
H481        C504   1.081       .  S
H482        C499   1.081       .  S
N484      Co1118   2.090   1_455  S
N485        N497   1.323       .  A
N485        N501   1.320       .  A
N485       Co494   2.087       .  S
C486        C514   1.468       .  S
C486        N490   1.342   1_554  A
C486        C500   1.467       .  S
C487        C506   1.472       .  S
C487        H491   1.081       .  S
N488        C499   1.334       .  A
N488       Co498   2.067       .  S
C492        C509   1.468       .  S
C492        N508   1.350   1_556  A
C492        C504   1.452       .  S
Co494      N1077   2.080       .  S
Co494      N1092   2.103       .  S
Co494      Cl505   2.458       .  S
N495        C506   1.342   1_554  A
C496        C518   1.475       .  S
Co498      N1085   2.064       .  S
Co498      N1104   2.082       .  S
Co498      Cl505   2.442   1_554  S
C506        C521   1.475   1_556  S
C509        H511   1.087       .  S
C509        C510   1.338   1_556  D
C510        H512   1.087       .  S
C513        H515   1.086       .  S
C513        C514   1.337       .  D
C514        H516   1.087   1_554  S
C517        H519   1.086       .  S
C517        C518   1.344       .  D
C518        H520   1.087   1_554  S
C521        H523   1.087       .  S
C521        C522   1.339   1_554  D
C522        H524   1.086       .  S
C525        H531   1.083       .  S
C525        C526   1.404       .  A
C525        C530   1.405       .  A
C526        C527   1.401       .  A
C527        H532   1.083       .  S
C527        C528   1.392       .  A
C528        H533   1.081       .  S
C528        C529   1.406       .  A
C529        C530   1.407       .  A
C530        H534   1.083       .  S
C535        H541   1.082       .  S
C535        C536   1.405       .  A
C535        C540   1.404       .  A
C536        C537   1.407       .  A
C537        H542   1.082       .  S
C537        C538   1.396       .  A
C538        H543   1.081       .  S
C538        C539   1.404       .  A
C539        C540   1.406       .  A
C540        H544   1.083       .  S
C545        H551   1.082       .  S
C545        C546   1.406       .  A
C545        C550   1.399       .  A
C546        C547   1.405       .  A
C547        H552   1.083       .  S
C547        C548   1.396       .  A
C548        H553   1.084       .  S
C548        C549   1.401       .  A
C549        C550   1.400       .  A
C550        H554   1.083       .  S
C555        H561   1.083       .  S
C555        C556   1.402       .  A
C555        C560   1.396       .  A
C556        C557   1.399       .  A
C557        H562   1.083       .  S
C557        C558   1.394       .  A
C558        H563   1.083       .  S
C558        C559   1.409       .  A
C559        C560   1.409       .  A
C560        H564   1.077       .  S
C565        H567   1.087       .  S
C565        C566   1.343       .  D
C566        H568   1.086       .  S
C569        H571   1.087       .  S
C569        C570   1.342       .  D
C570        H572   1.087       .  S
C573        H575   1.087       .  S
C573        C574   1.345       .  D
C574        H576   1.086       .  S
C577        H579   1.086       .  S
C577        C578   1.344       .  D
C578        H580   1.086       .  S
C581        H587   1.081       .  S
C581        C582   1.410       .  A
C581        C586   1.394       .  A
C582        C583   1.410       .  A
C583        H588   1.079       .  S
C583        C584   1.406       .  A
C584        H589   1.083       .  S
C584        C585   1.403       .  A
C585        C586   1.399       .  A
C586        H590   1.084       .  S
C591        H597   1.082       .  S
C591        C592   1.408       .  A
C591        C596   1.397       .  A
C592        C593   1.410       .  A
C593        H598   1.080       .  S
C593        C594   1.407       .  A
C594        H599   1.083       .  S
C594        C595   1.403       .  A
C595        C596   1.401       .  A
C596        H600   1.083       .  S
C601        H607   1.083       .  S
C601        C602   1.401       .  A
C601        C606   1.398       .  A
C602        C603   1.400       .  A
C603        H608   1.083       .  S
C603        C604   1.400       .  A
C604        H609   1.082       .  S
C604        C605   1.407       .  A
C605        C606   1.405       .  A
C606        H610   1.083       .  S
C611        H617   1.078       .  S
C611        C612   1.410       .  A
C611        C616   1.402       .  A
C612        C613   1.411       .  A
C613        H618   1.083       .  S
C613        C614   1.397       .  A
C614        H619   1.082       .  S
C614        C615   1.401       .  A
C615        C616   1.405       .  A
C616        H620   1.083       .  S
C621        C622   1.533       .  S
C621        C627   1.524       .  S
C621        C625   1.536       .  S
C621        C922   1.518       .  S
C622        H629   1.086       .  S
C622        C623   1.369       .  D
C623        C624   1.545       .  S
C623        C892   1.489       .  S
C624        C628   1.546       .  S
C624        C626   1.543       .  S
C624        H630   1.109       .  S
C625        H631   1.080       .  S
C625        C626   1.365       .  D
C626        C902   1.483       .  S
C627        H632   1.087       .  S
C627        C628   1.359       .  D
C628        C912   1.473       .  S
C633        C880   1.479       .  S
C633        N651   1.351       .  A
C633        C670   1.458       .  S
N634        N651   1.327       .  A
N634        N656   1.320       .  A
N634       Co981   2.089   1_545  S
C635        N660   1.340       .  A
C635        C673   1.462       .  S
C635        H680   1.081       .  S
H636        C677   1.081       .  S
C637        N661   1.342       .  A
C637        C641   1.460       .  S
C637        H666   1.081       .  S
Co638       N966   2.096       .  S
Co638       N956   2.079       .  S
Co638       N678   2.084       .  S
Co638       N654   2.090       .  S
Co638      Cl682   2.454       .  S
N639        C677   1.339       .  A
N639        N646   1.319       .  A
N639       Co950   2.073   1_545  S
Co640       N949   2.084       .  S
Co640       N953   2.085       .  S
Co640       N660   2.082       .  S
Co640       N647   2.091       .  S
Co640      Cl682   2.452       .  S
C641        C888   1.473       .  S
C641        N679   1.348       .  A
N642        N649   1.319       .  A
N642        N672   1.323       .  A
N642       Co985   2.082   1_545  S
N643        N661   1.319       .  A
N643        N679   1.325       .  A
N643       Co950   2.088   1_545  S
N644        C673   1.352       .  A
N644        N654   1.326       .  A
H645        C670   1.081       .  S
N646        N667   1.319       .  A
N646       Co948   2.068   1_545  S
N647        N665   1.322       .  A
N647        N652   1.327       .  A
C648        C875   1.475       .  S
C648        N652   1.351       .  A
C648        C676   1.456       .  S
N649        C664   1.341       .  A
N649       Co981   2.082   1_545  S
C650        N678   1.342       .  A
C650        C653   1.460       .  S
C650        H684   1.081       .  S
C653        C883   1.472       .  S
C653        N674   1.348       .  A
N654        N660   1.319       .  A
N655        C681   1.340       .  A
N655        N657   1.319       .  A
N655       Co671   2.088       .  S
N656        C670   1.343       .  A
N656       Co948   2.094   1_545  S
N657        N685   1.327       .  A
N657       Co675   2.089       .  S
H658        C681   1.081       .  S
H659        C676   1.081       .  S
N661       Co985   2.081   1_545  S
N662        N674   1.324       .  A
N662        N678   1.321       .  A
N662       Co671   2.090       .  S
C663        N667   1.346       .  A
C663        C677   1.457       .  S
C663        C925   1.461       .  S
C664        C683   1.462       .  S
C664        H668   1.081       .  S
N665        C676   1.341       .  A
N665       Co675   2.094       .  S
C669        N685   1.352       .  A
C669        C681   1.462       .  S
C669        C856   1.484       .  S
Co671       N944   2.085       .  S
Co671       N959   2.082       .  S
Co671      Cl682   2.451       .  S
N672        C683   1.350       .  A
C673        C915   1.483       .  S
Co675       N952   2.095       .  S
Co675       N971   2.082       .  S
Co675      Cl682   2.455       .  S
C683        C866   1.477       .  S
N686        C691   1.357       .  A
N686        H718   1.034       .  S
N687        C694   1.352       .  A
N687        C695   1.352       .  A
N688        C693   1.356       .  A
N688        H719   1.035       .  S
N689        C696   1.353       .  A
N689        C697   1.352       .  A
C690        C698   1.388       .  A
C690        C706   1.422       .  A
C691        C707   1.421       .  A
C691        C699   1.387       .  A
C692        C700   1.387       .  A
C692        C709   1.420       .  A
C693        C708   1.422       .  A
C693        C701   1.389       .  A
C694        C706   1.417       .  A
C694        C702   1.387       .  A
C695        C709   1.416       .  A
C695        C703   1.386       .  A
C696        C704   1.386       .  A
C696        C707   1.417       .  A
C697        C705   1.387       .  A
C697        C708   1.418       .  A
C698        H710   1.082       .  S
C699        H711   1.082       .  S
C700        H712   1.082       .  S
C701        H713   1.082       .  S
C702        H714   1.082       .  S
C702        C703   1.374       .  A
C703        H715   1.082       .  S
C704        H716   1.082       .  S
C704        C705   1.375       .  A
C705        H717   1.082       .  S
C706        C887   1.489       .  S
C707        C879   1.491       .  S
C708        C884   1.489       .  S
C709        C876   1.489       .  S
C720        C721   1.537       .  S
C720        C726   1.525       .  S
C720        C724   1.538       .  S
C720        C869   1.526       .  S
C721        H728   1.086       .  S
C721        C722   1.370       .  D
C722        C723   1.547       .  S
C722        C846   1.489       .  S
C723        C727   1.545       .  S
C723        C725   1.543       .  S
C723        H729   1.110       .  S
C724        H730   1.083       .  S
C724        C725   1.368       .  D
C725        C836   1.486       .  S
C726        H731   1.087       .  S
C726        C727   1.361       .  D
C727        C859   1.477       .  S
N732        C737   1.353   1_556  A
N732        C736   1.352       .  A
N732        H764   1.035       .  S
N733       C1050   1.350   1_545  A
N733        C741   1.351       .  A
N734        C739   1.352   1_554  A
N734        C738   1.352       .  A
N734        H765   1.033       .  S
N735       C1052   1.353   1_545  A
N735        C743   1.351       .  A
C736        C744   1.386   1_556  A
C736        C752   1.414       .  A
C737        C753   1.417       .  A
C737        C745   1.388       .  A
C738        C746   1.386   1_554  A
C738        C755   1.413       .  A
C739        C754   1.417       .  A
C739        C747   1.389       .  A
C740       N1043   1.351       .  A
C740        C752   1.413       .  A
C740        C748   1.386       .  A
C741        C755   1.414       .  A
C741        C749   1.387       .  A
C742       N1045   1.351       .  A
C742        C750   1.386       .  A
C742        C753   1.413   1_556  A
C743        C751   1.388       .  A
C743        C754   1.418   1_554  A
C744        H756   1.082       .  S
C744        C745   1.380       .  A
C745        H757   1.082       .  S
C746        H758   1.082       .  S
C746        C747   1.380       .  A
C747        H759   1.082       .  S
C748        H760   1.082       .  S
C748       C1059   1.372       .  A
C749        H761   1.082       .  S
C749       C1058   1.372   1_545  A
C750        H762   1.082       .  S
C750       C1061   1.374       .  A
C751        H763   1.081       .  S
C751       C1060   1.371   1_545  A
C752        C827   1.485       .  S
C753        C823   1.485       .  S
C754        C832   1.483       .  S
C755        C820   1.484       .  S
C766        N784   1.351       .  A
C766        C803   1.458       .  S
C766        C905   1.474       .  S
N767        N784   1.323       .  A
N767        N789   1.318       .  A
C768        N793   1.335       .  A
C768        C806   1.447       .  S
C768        H813   1.081       .  S
H769        C810   1.082       .  S
C770        N794   1.339       .  A
C770        C774   1.459       .  S
C770        H799   1.081       .  S
Co771       N811   2.082       .  S
Co771       N787   2.110       .  S
Co771      Cl815   2.456   1_655  S
N772        C810   1.346       .  A
N772        N779   1.321   1_554  A
Co773       N793   2.071   1_455  S
Co773       N780   2.107   1_455  S
Co773      Cl815   2.460   1_554  S
C774        N812   1.355       .  A
C774        C849   1.486       .  S
N775        N782   1.319   1_554  A
N775        N805   1.321       .  A
N776        N794   1.321       .  A
N776        N812   1.329       .  A
N777        C806   1.356   1_556  A
N777        N787   1.330       .  A
H778        C803   1.081       .  S
N779        N800   1.322       .  A
N780        N798   1.319       .  A
N780        N785   1.330       .  A
C781        N785   1.356       .  A
C781        C809   1.458       .  S
C781        C839   1.484       .  S
N782        C797   1.345       .  A
C783        N811   1.345       .  A
C783        C786   1.464       .  S
C783        H817   1.081       .  S
C786        N807   1.349       .  A
C786        C895   1.479       .  S
N787        N793   1.322   1_556  A
N788        C814   1.334       .  A
N788        N790   1.318   1_556  A
N788       Co804   2.058   1_655  S
N789        C803   1.340       .  A
N790        N818   1.330       .  A
N790       Co808   2.104       .  S
H791        C814   1.081       .  S
H792        C809   1.081       .  S
N795        N807   1.322       .  A
N795        N811   1.320       .  A
N795       Co804   2.091   1_655  S
C796        C824   1.472       .  S
C796        N800   1.344       .  A
C796        C810   1.466   1_556  S
C797        C816   1.464   1_556  S
C797        H801   1.081       .  S
N798        C809   1.334       .  A
N798       Co808   2.066       .  S
C802        C819   1.468       .  S
C802        N818   1.356   1_556  A
C802        C814   1.444       .  S
Co804      Cl815   2.449       .  S
N805        C816   1.343       .  A
C806        C828   1.471       .  S
Co808      Cl815   2.440   1_654  S
C816        C831   1.467       .  S
C819        H821   1.087       .  S
C819        C820   1.336   1_556  D
C820        H822   1.086       .  S
C823        H825   1.086       .  S
C823        C824   1.338   1_554  D
C824        H826   1.087       .  S
C827        H829   1.086       .  S
C827        C828   1.337   1_556  D
C828        H830   1.087       .  S
C831        H833   1.087       .  S
C831        C832   1.337   1_554  D
C832        H834   1.086       .  S
C835        H841   1.083       .  S
C835        C836   1.405       .  A
C835        C840   1.407       .  A
C836        C837   1.404       .  A
C837        H842   1.083       .  S
C837        C838   1.392       .  A
C838        H843   1.081       .  S
C838        C839   1.404       .  A
C839        C840   1.408       .  A
C840        H844   1.083       .  S
C845        H851   1.083       .  S
C845        C846   1.405       .  A
C845        C850   1.406       .  A
C846        C847   1.405       .  A
C847        H852   1.083       .  S
C847        C848   1.395       .  A
C848        H853   1.082       .  S
C848        C849   1.405       .  A
C849        C850   1.407       .  A
C850        H854   1.083       .  S
C855        H861   1.082       .  S
C855        C856   1.405       .  A
C855        C860   1.397       .  A
C856        C857   1.408       .  A
C857        H862   1.083       .  S
C857        C858   1.404       .  A
C858        H863   1.083       .  S
C858        C859   1.403       .  A
C859        C860   1.402       .  A
C860        H864   1.084       .  S
C865        H871   1.083       .  S
C865        C866   1.402       .  A
C865        C870   1.396       .  A
C866        C867   1.402       .  A
C867        H872   1.082       .  S
C867        C868   1.398       .  A
C868        H873   1.083       .  S
C868        C869   1.409       .  A
C869        C870   1.410       .  A
C870        H874   1.079       .  S
C875        H877   1.087       .  S
C875        C876   1.342       .  D
C876        H878   1.086       .  S
C879        H881   1.086       .  S
C879        C880   1.344       .  D
C880        H882   1.086       .  S
C883        H885   1.087       .  S
C883        C884   1.343       .  D
C884        H886   1.086       .  S
C887        H889   1.086       .  S
C887        C888   1.343       .  D
C888        H890   1.087       .  S
C891        H897   1.082       .  S
C891        C892   1.406       .  A
C891        C896   1.391       .  A
C892        C893   1.406       .  A
C893        H898   1.082       .  S
C893        C894   1.405       .  A
C894        H899   1.082       .  S
C894        C895   1.406       .  A
C895        C896   1.402       .  A
C896        H900   1.083       .  S
C901        H907   1.083       .  S
C901        C902   1.408       .  A
C901        C906   1.391       .  A
C902        C903   1.402       .  A
C903        H908   1.083       .  S
C903        C904   1.401       .  A
C904        H909   1.082       .  S
C904        C905   1.407       .  A
C905        C906   1.400       .  A
C906        H910   1.083       .  S
C911        H917   1.083       .  S
C911        C912   1.401       .  A
C911        C916   1.402       .  A
C912        C913   1.401       .  A
C913        H918   1.084       .  S
C913        C914   1.398       .  A
C914        H919   1.082       .  S
C914        C915   1.406       .  A
C915        C916   1.408       .  A
C916        H920   1.083       .  S
C921        H927   1.075       .  S
C921        C922   1.409       .  A
C921        C926   1.389       .  A
C922        C923   1.409       .  A
C923        H928   1.083       .  S
C923        C924   1.393       .  A
C924        H929   1.083       .  S
C924        C925   1.399       .  A
C925        C926   1.398       .  A
C926        H930   1.084       .  S
C931        C932   1.526       .  S
C931        C937   1.524       .  S
C931        C935   1.533       .  S
C931       C1232   1.520       .  S
C932        H939   1.084       .  S
C932        C933   1.371       .  D
C933        C934   1.553       .  S
C933       C1202   1.497       .  S
C934        C938   1.545       .  S
C934        C936   1.555       .  S
C934        H940   1.108       .  S
C935        H941   1.082       .  S
C935        C936   1.372       .  D
C936       C1212   1.500       .  S
C937        H942   1.087       .  S
C937        C938   1.359       .  D
C938       C1222   1.476       .  S
C943       C1190   1.478       .  S
C943        N961   1.350       .  A
C943        C980   1.459       .  S
N944        N961   1.327       .  A
N944        N966   1.320       .  A
C945        N970   1.340       .  A
C945        C983   1.460       .  S
C945        H990   1.081       .  S
H946        C987   1.081       .  S
C947        N971   1.340       .  A
C947        C951   1.459       .  S
C947        H976   1.081       .  S
Co948       N988   2.078       .  S
Co948       N964   2.088       .  S
Co948      Cl992   2.450       .  S
N949        C987   1.340       .  A
N949        N956   1.320       .  A
Co950       N970   2.084       .  S
Co950       N957   2.081       .  S
Co950      Cl992   2.451       .  S
C951       C1198   1.472       .  S
C951        N989   1.348       .  A
N952        N959   1.319       .  A
N952        N982   1.326       .  A
N953        N971   1.320       .  A
N953        N989   1.325       .  A
N954        C983   1.351       .  A
N954        N964   1.325       .  A
H955        C980   1.081       .  S
N956        N977   1.322       .  A
N957        N975   1.320       .  A
N957        N962   1.326       .  A
C958       C1185   1.474       .  S
C958        N962   1.350       .  A
C958        C986   1.457       .  S
N959        C974   1.340       .  A
C960        N988   1.340       .  A
C960        C963   1.459       .  S
C960        H994   1.081       .  S
C963       C1193   1.475       .  S
C963        N984   1.351       .  A
N964        N970   1.320       .  A
N965        C991   1.342       .  A
N965        N967   1.321       .  A
N965       Co981   2.090       .  S
N966        C980   1.344       .  A
N967        N995   1.321       .  A
N967       Co985   2.076       .  S
H968        C991   1.081       .  S
H969        C986   1.081       .  S
N972        N984   1.326       .  A
N972        N988   1.320       .  A
N972       Co981   2.097       .  S
C973        N977   1.348       .  A
C973        C987   1.461       .  S
C973       C1235   1.472       .  S
C974        C993   1.461       .  S
C974        H978   1.081       .  S
N975        C986   1.342       .  A
N975       Co985   2.092       .  S
C979        N995   1.347       .  A
C979        C991   1.464       .  S
C979       C1166   1.474       .  S
Co981      Cl992   2.455       .  S
N982        C993   1.353       .  A
C983       C1225   1.478       .  S
Co985      Cl992   2.448       .  S
C993       C1176   1.482       .  S
N996       C1001   1.357       .  A
N996       H1028   1.035       .  S
N997       C1004   1.352       .  A
N997       C1005   1.352       .  A
N998       C1003   1.356       .  A
N998       H1029   1.035       .  S
N999       C1006   1.353       .  A
N999       C1007   1.352       .  A
C1000      C1008   1.388       .  A
C1000      C1016   1.420       .  A
C1001      C1017   1.420       .  A
C1001      C1009   1.387       .  A
C1002      C1010   1.387       .  A
C1002      C1019   1.420       .  A
C1003      C1018   1.421       .  A
C1003      C1011   1.388       .  A
C1004      C1016   1.415       .  A
C1004      C1012   1.387       .  A
C1005      C1019   1.415       .  A
C1005      C1013   1.386       .  A
C1006      C1014   1.386       .  A
C1006      C1017   1.417       .  A
C1007      C1015   1.387       .  A
C1007      C1018   1.418       .  A
C1008      H1020   1.082       .  S
C1009      H1021   1.082       .  S
C1010      H1022   1.082       .  S
C1011      H1023   1.082       .  S
C1012      H1024   1.082       .  S
C1012      C1013   1.372       .  A
C1013      H1025   1.082       .  S
C1014      H1026   1.082       .  S
C1014      C1015   1.374       .  A
C1015      H1027   1.082       .  S
C1016      C1197   1.488       .  S
C1017      C1189   1.493       .  S
C1018      C1194   1.490       .  S
C1019      C1186   1.489       .  S
C1030      C1031   1.539       .  S
C1030      C1036   1.524       .  S
C1030      C1034   1.541       .  S
C1030      C1179   1.528       .  S
C1031      H1038   1.085       .  S
C1031      C1032   1.371       .  D
C1032      C1033   1.542       .  S
C1032      C1156   1.488       .  S
C1033      C1037   1.538       .  S
C1033      C1035   1.543       .  S
C1033      H1039   1.110       .  S
C1034      H1040   1.084       .  S
C1034      C1035   1.369       .  D
C1035      C1146   1.487       .  S
C1036      H1041   1.087       .  S
C1036      C1037   1.360       .  D
C1037      C1169   1.468       .  S
N1042      C1047   1.352       .  A
N1042      C1046   1.354       .  A
N1042      H1074   1.031       .  S
N1043      C1051   1.350       .  A
N1044      C1049   1.350       .  A
N1044      C1048   1.353       .  A
N1044      H1075   1.036       .  S
N1045      C1053   1.352       .  A
C1046      C1054   1.388   1_554  A
C1046      C1062   1.419   1_554  A
C1047      C1063   1.415       .  A
C1047      C1055   1.386   1_554  A
C1048      C1056   1.389   1_556  A
C1048      C1065   1.416       .  A
C1049      C1064   1.412       .  A
C1049      C1057   1.386   1_556  A
C1050      C1062   1.412   1_554  A
C1050      C1058   1.386       .  A
C1051      C1065   1.414       .  A
C1051      C1059   1.387       .  A
C1052      C1060   1.386       .  A
C1052      C1063   1.418       .  A
C1053      C1061   1.387       .  A
C1053      C1064   1.416       .  A
C1054      H1066   1.082       .  S
C1054      C1055   1.378       .  A
C1055      H1067   1.082       .  S
C1056      H1068   1.082       .  S
C1056      C1057   1.379       .  A
C1057      H1069   1.082       .  S
C1058      H1070   1.082       .  S
C1059      H1071   1.081       .  S
C1060      H1072   1.082       .  S
C1061      H1073   1.082       .  S
C1062      C1137   1.484       .  S
C1063      C1133   1.489       .  S
C1064      C1142   1.486       .  S
C1065      C1130   1.483   1_556  S
C1076      N1094   1.350       .  A
C1076      C1113   1.462       .  S
C1076      C1215   1.477       .  S
N1077      N1094   1.324       .  A
N1077      N1099   1.320       .  A
C1078      N1103   1.336       .  A
C1078      C1116   1.446       .  S
C1078      H1123   1.081       .  S
H1079      C1120   1.081       .  S
C1080      N1104   1.337       .  A
C1080      C1084   1.461       .  S
C1080      H1109   1.081       .  S
Co1081     N1121   2.082       .  S
Co1081     N1097   2.104       .  S
Co1081    Cl1125   2.456   1_556  S
N1082      C1120   1.349       .  A
N1082      N1089   1.322   1_554  A
Co1083     N1103   2.069       .  S
Co1083     N1090   2.099       .  S
Co1083    Cl1125   2.452       .  S
C1084      N1122   1.354       .  A
C1084      C1159   1.483       .  S
N1085      N1092   1.320   1_554  A
N1085      N1115   1.320       .  A
N1086      N1104   1.319       .  A
N1086      N1122   1.328       .  A
N1087      C1116   1.355   1_556  A
N1087      N1097   1.329       .  A
H1088      C1113   1.081       .  S
N1089      N1110   1.320       .  A
N1090      N1108   1.319       .  A
N1090      N1095   1.327       .  A
C1091      N1095   1.352       .  A
C1091      C1119   1.463       .  S
C1091      C1149   1.484       .  S
N1092      C1107   1.348       .  A
C1093      N1121   1.346       .  A
C1093      C1096   1.461       .  S
C1093      H1127   1.082       .  S
C1096      N1117   1.349       .  A
C1096      C1205   1.474       .  S
N1097      N1103   1.321   1_556  A
N1098      C1124   1.336       .  A
N1098      N1100   1.319   1_556  A
N1098     Co1114   2.067   1_655  S
N1099      C1113   1.346       .  A
N1100      N1128   1.328       .  A
N1100     Co1118   2.095       .  S
H1101      C1124   1.081       .  S
H1102      C1119   1.081       .  S
N1105      N1117   1.321       .  A
N1105      N1121   1.320       .  A
N1105     Co1114   2.092   1_655  S
C1106      C1134   1.472   1_554  S
C1106      N1110   1.342   1_554  A
C1106      C1120   1.469       .  S
C1107      C1126   1.468       .  S
C1107      H1111   1.081       .  S
N1108      C1119   1.340       .  A
N1108     Co1118   2.078       .  S
C1112      C1129   1.468       .  S
C1112      N1128   1.354   1_556  A
C1112      C1124   1.446       .  S
Co1114    Cl1125   2.449   1_456  S
N1115      C1126   1.341   1_554  A
C1116      C1138   1.471       .  S
Co1118    Cl1125   2.449       .  S
C1126      C1141   1.468   1_556  S
C1129      H1131   1.087       .  S
C1129      C1130   1.336   1_556  D
C1130      H1132   1.086       .  S
C1133      H1135   1.086       .  S
C1133      C1134   1.339   1_554  D
C1134      H1136   1.087       .  S
C1137      H1139   1.086       .  S
C1137      C1138   1.336   1_556  D
C1138      H1140   1.087       .  S
C1141      H1143   1.087       .  S
C1141      C1142   1.337   1_554  D
C1142      H1144   1.086       .  S
C1145      H1151   1.083       .  S
C1145      C1146   1.404       .  A
C1145      C1150   1.403       .  A
C1146      C1147   1.405       .  A
C1147      H1152   1.083       .  S
C1147      C1148   1.397       .  A
C1148      H1153   1.082       .  S
C1148      C1149   1.404       .  A
C1149      C1150   1.408       .  A
C1150      H1154   1.083       .  S
C1155      H1161   1.083       .  S
C1155      C1156   1.406       .  A
C1155      C1160   1.406       .  A
C1156      C1157   1.404       .  A
C1157      H1162   1.083       .  S
C1157      C1158   1.392       .  A
C1158      H1163   1.081       .  S
C1158      C1159   1.404       .  A
C1159      C1160   1.407       .  A
C1160      H1164   1.083       .  S
C1165      H1171   1.082       .  S
C1165      C1166   1.405       .  A
C1165      C1170   1.399       .  A
C1166      C1167   1.405       .  A
C1167      H1172   1.083       .  S
C1167      C1168   1.395       .  A
C1168      H1173   1.084       .  S
C1168      C1169   1.400       .  A
C1169      C1170   1.401       .  A
C1170      H1174   1.083       .  S
C1175      H1181   1.083       .  S
C1175      C1176   1.403       .  A
C1175      C1180   1.398       .  A
C1176      C1177   1.404       .  A
C1177      H1182   1.082       .  S
C1177      C1178   1.399       .  A
C1178      H1183   1.082       .  S
C1178      C1179   1.410       .  A
C1179      C1180   1.410       .  A
C1180      H1184   1.080       .  S
C1185      H1187   1.086       .  S
C1185      C1186   1.343       .  D
C1186      H1188   1.087       .  S
C1189      H1191   1.087       .  S
C1189      C1190   1.345       .  D
C1190      H1192   1.086       .  S
C1193      H1195   1.086       .  S
C1193      C1194   1.344       .  D
C1194      H1196   1.086       .  S
C1197      H1199   1.086       .  S
C1197      C1198   1.343       .  D
C1198      H1200   1.087       .  S
C1201      H1207   1.081       .  S
C1201      C1202   1.409       .  A
C1201      C1206   1.388       .  A
C1202      C1203   1.410       .  A
C1203      H1208   1.081       .  S
C1203      C1204   1.409       .  A
C1204      H1209   1.083       .  S
C1204      C1205   1.406       .  A
C1205      C1206   1.397       .  A
C1206      H1210   1.084       .  S
C1211      H1217   1.082       .  S
C1211      C1212   1.411       .  A
C1211      C1216   1.395       .  A
C1212      C1213   1.409       .  A
C1213      H1218   1.081       .  S
C1213      C1214   1.407       .  A
C1214      H1219   1.083       .  S
C1214      C1215   1.404       .  A
C1215      C1216   1.399       .  A
C1216      H1220   1.084       .  S
C1221      H1227   1.083       .  S
C1221      C1222   1.401       .  A
C1221      C1226   1.401       .  A
C1222      C1223   1.404       .  A
C1223      H1228   1.084       .  S
C1223      C1224   1.397       .  A
C1224      H1229   1.083       .  S
C1224      C1225   1.404       .  A
C1225      C1226   1.407       .  A
C1226      H1230   1.083       .  S
C1231      H1237   1.079       .  S
C1231      C1232   1.408       .  A
C1231      C1236   1.394       .  A
C1232      C1233   1.410       .  A
C1233      H1238   1.083       .  S
C1233      C1234   1.395       .  A
C1234      H1239   1.082       .  S
C1234      C1235   1.401       .  A
C1235      C1236   1.402       .  A
C1236      H1240   1.083       .  S
