geometry optimzed in LAMMPS
_audit_creation_date              2020-12-01 
_audit_creation_method            'lammps2cif' 
_symmetry_space_group_name_H-M    'P1' 
_symmetry_Int_Tables_number       1 
_symmetry_cell_setting            triclinic 
loop_ 
_symmetry_equiv_pos_as_xyz 
  x,y,z 
_cell_length_a                    57.56258661 
_cell_length_b                    57.51134773371919 
_cell_length_c                    54.01208851956356 
_cell_angle_alpha                 90.19104949720564 
_cell_angle_beta                  89.96392783817078 
_cell_angle_gamma                 119.55108339797789 
loop_ 
_atom_site_label 
_atom_site_type_symbol 
_atom_site_fract_x 
_atom_site_fract_y 
_atom_site_fract_z 
_atom_site_charge 
O1          O  0.76557865  0.90002596  0.44166623    -0.70900
O2          O  0.74062311  0.94897007  0.42421672    -0.71200
O3          O  0.77572180  0.94893289  0.45685823    -0.71000
O4          O  0.73119350  0.90029058  0.40790341    -0.71000
O5          O  0.69950891  0.88014891  0.43476101    -0.71000
O6          O  0.74367159  0.93159745  0.48368563    -0.71000
O7          O  0.70813378  0.92829270  0.45018992    -0.71000
O8          O  0.73437026  0.88285936  0.46934145    -0.71100
V9          V  0.75265956  0.92413980  0.43310076     1.35200
V10         V  0.72203391  0.90603944  0.45891962     1.35200
C11         C  0.75424509  0.88334675  0.45908269     0.78300
C12         C  0.72016323  0.94713390  0.43505133     0.78400
C13         C  0.76737696  0.94935788  0.47834383     0.78200
C14         C  0.70801827  0.88160991  0.41279256     0.78200
O15         O  0.57615646  0.09614545  0.41264590    -0.70900
O16         O  0.62122616  0.06601831  0.42494852    -0.71200
O17         O  0.62238309  0.10319440  0.39411378    -0.71000
O18         O  0.57472718  0.05948442  0.44413738    -0.71000
O19         O  0.55140643  0.02913601  0.41679451    -0.71000
O20         O  0.60200265  0.07147572  0.36709928    -0.71000
O21         O  0.59763543  0.03404297  0.39912807    -0.71000
O22         O  0.55603864  0.06631097  0.38386228    -0.71100
V23         V  0.59821102  0.08054390  0.41851930     1.35200
V24         V  0.57713687  0.05076028  0.39232723     1.35200
C25         C  0.55904544  0.08669672  0.39540818     0.78300
C26         C  0.61733611  0.04499798  0.41365293     0.78400
C27         C  0.62051015  0.09492407  0.37212466     0.78200
C28         C  0.55433084  0.03737802  0.43902167     0.78200
O29         O  0.06577672  0.19625433  0.93536545    -0.70900
O30         O  0.01434017  0.21733164  0.91715971    -0.71200
O31         O  0.06251691  0.22761725  0.90011479    -0.71000
O32         O  0.01731137  0.18539249  0.95172583    -0.71000
O33         O  0.03757902  0.21837976  0.97750384    -0.71000
O34         O  0.07979017  0.26250768  0.92406103    -0.71000
O35         O  0.03200055  0.24941214  0.94430718    -0.71000
O36         O  0.08560210  0.23187445  0.95819289    -0.71100
V37         V  0.04035321  0.20729252  0.92651340     1.35200
V38         V  0.05844778  0.23990388  0.95050180     1.35200
C39         C  0.08468926  0.21086006  0.95000789     0.78300
C40         C  0.01410125  0.23660214  0.92845665     0.78400
C41         C  0.07861412  0.25225946  0.90293816     0.78200
C42         C  0.01958052  0.19444472  0.97341645     0.78200
O43         O  0.88357305  0.39738054  0.91138433    -0.70900
O44         O  0.90976024  0.34863410  0.92240754    -0.71200
O45         O  0.92088105  0.39675657  0.94082976    -0.71000
O46         O  0.87192843  0.34910662  0.89400864    -0.71000
O47         O  0.90188662  0.36560209  0.86515401    -0.71000
O48         O  0.94911969  0.41867930  0.91157773    -0.71000
O49         O  0.94114137  0.37043687  0.89559611    -0.71000
O50         O  0.91095920  0.41411969  0.88052813    -0.71100
V51         V  0.89714878  0.37336632  0.91664723     1.35200
V52         V  0.92528888  0.39184301  0.88874660     1.35200
C53         C  0.89275122  0.41392841  0.89365319     0.78300
C54         C  0.93006320  0.35132045  0.91069728     0.78400
C55         C  0.94270200  0.41652846  0.93428885     0.78200
C56         C  0.87838600  0.34850383  0.87182906     0.78200
O57         O  0.20501870  0.07067778  0.57972581    -0.70900
O58         O  0.22917845  0.02003865  0.59184766    -0.71200
O59         O  0.24048124  0.06814397  0.61054940    -0.71000
O60         O  0.19292840  0.02191728  0.56172012    -0.71000
O61         O  0.22392356  0.03964341  0.53390320    -0.71000
O62         O  0.27069592  0.08943185  0.58257847    -0.71000
O63         O  0.26070122  0.04119528  0.56506291    -0.71000
O64         O  0.23465868  0.08837656  0.55073614    -0.71100
V65         V  0.21744592  0.04560029  0.58543109     1.35200
V66         V  0.24688349  0.06427474  0.55861032     1.35200
C67         C  0.21612065  0.08843590  0.56310782     0.78300
C68         C  0.24928095  0.02211216  0.58015698     0.78400
C69         C  0.26336341  0.08698501  0.60502668     0.78200
C70         C  0.20038616  0.02192912  0.53974527     0.78200
O71         O  0.39966508  0.87726619  0.60037224    -0.70900
O72         O  0.35092846  0.90360765  0.58818907    -0.71200
O73         O  0.39784318  0.91224181  0.56822376    -0.71000
O74         O  0.35263288  0.86824062  0.61948325    -0.71000
O75         O  0.37247219  0.90062517  0.64594336    -0.71000
O76         O  0.42065557  0.94354091  0.59498033    -0.71000
O77         O  0.37381908  0.93630752  0.61357389    -0.71000
O78         O  0.41953004  0.90843739  0.62793769    -0.71100
V79         V  0.37568693  0.89096022  0.59452307     1.35200
V80         V  0.39621173  0.92162359  0.62004807     1.35200
C81         C  0.41791035  0.88847355  0.61657016     0.78300
C82         C  0.35396453  0.92444038  0.59928914     0.78400
C83         C  0.41751459  0.93502391  0.57285231     0.78200
C84         C  0.35420384  0.87695804  0.64125554     0.78200
O85         O  0.42241931  0.22841071  0.77588830    -0.70900
O86         O  0.39610789  0.27667423  0.76106577    -0.71200
O87         O  0.43220844  0.27626488  0.79275464    -0.71000
O88         O  0.38739657  0.22921192  0.74334046    -0.71000
O89         O  0.35504705  0.20900364  0.76956093    -0.71000
O90         O  0.40127783  0.25640735  0.82035342    -0.71000
O91         O  0.36524962  0.25670286  0.78871178    -0.71000
O92         O  0.39015332  0.20836433  0.80220572    -0.71100
V93         V  0.40886469  0.25225209  0.76875638     1.35200
V94         V  0.37851080  0.23301548  0.79467659     1.35200
C95         C  0.41059298  0.21010257  0.79187327     0.78300
C96         C  0.37614093  0.27493097  0.77277802     0.78400
C97         C  0.42492186  0.27436986  0.81499267     0.78200
C98         C  0.36387479  0.21092229  0.74764111     0.78200
O99         O  0.22472509  0.41739759  0.73960672    -0.70900
O100        O  0.27390452  0.39195111  0.75407938    -0.71200
O101        O  0.27309403  0.42760274  0.72251374    -0.71000
O102        O  0.22587585  0.38200894  0.77179991    -0.71000
O103        O  0.20461409  0.35147133  0.74396770    -0.71000
O104        O  0.25548220  0.39558611  0.69543959    -0.71000
O105        O  0.25233655  0.35943875  0.72813585    -0.71000
O106        O  0.20743430  0.38730493  0.71075477    -0.71100
V107        V  0.24900924  0.40418173  0.74652726     1.35200
V108        V  0.23028752  0.37406047  0.72016087     1.35200
C109        C  0.20791730  0.40675980  0.72212513     0.78300
C110        C  0.27146097  0.37123569  0.74319096     0.78400
C111        C  0.27320492  0.41922679  0.70085673     0.78200
C112        C  0.20692181  0.35908679  0.76631876     0.78200
O113        O  0.72987929  0.53189030  0.25762327    -0.70900
O114        O  0.68338429  0.56113213  0.24739340    -0.71200
O115        O  0.73094973  0.57039024  0.22868309    -0.71000
O116        O  0.68187238  0.52231930  0.27586311    -0.71000
O117        O  0.70039546  0.55253856  0.30442928    -0.71000
O118        O  0.75363339  0.59808565  0.25821179    -0.71000
O119        O  0.70645647  0.59184900  0.27449251    -0.71000
O120        O  0.74767393  0.55932095  0.28850359    -0.71100
V121        V  0.70689378  0.54691411  0.25289070     1.35200
V122        V  0.72660452  0.57485077  0.28084282     1.35200
C123        C  0.74712859  0.54126041  0.27482820     0.78300
C124        C  0.68710930  0.58162894  0.25952219     0.78400
C125        C  0.75122409  0.59188119  0.23547102     0.78200
C126        C  0.68183646  0.52963108  0.29796264     0.78200
O127        O  0.54351121  0.73236392  0.25220178    -0.70900
O128        O  0.56694639  0.68118934  0.26266976    -0.71200
O129        O  0.57774116  0.72835850  0.28346207    -0.71000
O130        O  0.53218641  0.68502747  0.23182900    -0.71000
O131        O  0.56422489  0.70437491  0.20512084    -0.71000
O132        O  0.60909521  0.75039783  0.25665936    -0.71000
O133        O  0.59930425  0.70315011  0.23672521    -0.71000
O134        O  0.57463937  0.75165005  0.22467146    -0.71100
V135        V  0.55569108  0.70707521  0.25704962     1.35200
V136        V  0.58623000  0.72696310  0.23137958     1.35200
C137        C  0.55539397  0.75091256  0.23650706     0.78300
C138        C  0.58707994  0.68345876  0.25098927     0.78400
C139        C  0.60077077  0.74749001  0.27879850     0.78200
C140        C  0.54029242  0.68689490  0.20976679     0.78200
O141        O  0.09716532  0.57147707  0.09807551    -0.70900
O142        O  0.06835545  0.61767418  0.08403687    -0.71200
O143        O  0.10458540  0.61856813  0.11567896    -0.71000
O144        O  0.06119124  0.57065733  0.06591374    -0.71000
O145        O  0.02956708  0.54895452  0.09249931    -0.71000
O146        O  0.07343944  0.59798071  0.14292581    -0.71000
O147        O  0.03705908  0.59592468  0.11085848    -0.71000
O148        O  0.06560237  0.55076354  0.12495665    -0.71100
V149        V  0.08219054  0.59416972  0.09141698     1.35200
V150        V  0.05202702  0.57381235  0.11728102     1.35200
C151        C  0.08597573  0.55300127  0.11395050     0.78300
C152        C  0.04789206  0.61485314  0.09552934     0.78400
C153        C  0.09648553  0.61700492  0.13766055     0.78200
C154        C  0.03829897  0.55126114  0.07057070     0.78200
O155        O  0.89208445  0.75105440  0.07055629    -0.70900
O156        O  0.94405913  0.72880592  0.07976797    -0.71200
O157        O  0.93981328  0.76414030  0.05063826    -0.71000
O158        O  0.89687791  0.71647176  0.10037536    -0.71000
O159        O  0.87548078  0.68516860  0.07330674    -0.71000
O160        O  0.92120782  0.73320107  0.02271149    -0.71000
O161        O  0.92317690  0.69717980  0.05282357    -0.71000
O162        O  0.87283535  0.72041896  0.04240599    -0.71100
V163        V  0.91776948  0.73946843  0.07477419     1.35200
V164        V  0.89851584  0.70956721  0.04829526     1.35200
C165        C  0.87346250  0.73934588  0.05483540     0.78300
C166        C  0.94248250  0.70914561  0.06764288     0.78400
C167        C  0.93872138  0.75699861  0.02839648     0.78200
C168        C  0.87857064  0.69299328  0.09572604     0.78200
O169        O  0.46307576  0.87517899  0.11687399    -0.70900
O170        O  0.53613494  0.90194325  0.09794723    -0.71200
O171        O  0.50353446  0.86839297  0.13284732    -0.71000
O172        O  0.49510260  0.90816461  0.08161650    -0.71000
O173        O  0.50875683  0.94238655  0.10618135    -0.71000
O174        O  0.51484008  0.90114789  0.15877385    -0.71000
O175        O  0.54797759  0.93438551  0.12437858    -0.71000
O176        O  0.47568995  0.90943798  0.14111150    -0.71100
V177        V  0.49975008  0.88908373  0.10780169     1.35200
V178        V  0.51155786  0.92122894  0.13207698     1.35200
C179        C  0.45694795  0.88804297  0.13217995     0.78300
C180        C  0.55457780  0.92246521  0.10859040     0.78400
C181        C  0.51035849  0.87760671  0.15451573     0.78200
C182        C  0.50026660  0.93194969  0.08503277     0.78200
O183        O  0.84453618  0.06051400  0.07728527    -0.70900
O184        O  0.76966931  0.01685635  0.08923691    -0.71200
O185        O  0.80465565  0.01527967  0.05754674    -0.71000
O186        O  0.80967994  0.06192313  0.10929325    -0.71000
O187        O  0.80477632  0.08749119  0.08279543    -0.71000
O188        O  0.79296593  0.03644324  0.03172401    -0.71000
O189        O  0.76187769  0.04258132  0.06545480    -0.71000
O190        O  0.83533682  0.08166939  0.04919486    -0.71100
V191        V  0.80693606  0.03904697  0.08283249     1.35200
V192        V  0.79886986  0.06157873  0.05773882     1.35200
C193        C  0.85261953  0.07889537  0.06125850     0.78300
C194        C  0.75301676  0.02253659  0.07958188     0.78400
C195        C  0.79714221  0.01714482  0.03602864     0.78200
C196        C  0.80935479  0.08329526  0.10481048     0.78200
O197        O  0.79618292  0.23239765  0.26897207    -0.70900
O198        O  0.87085846  0.28003783  0.25772621    -0.71200
O199        O  0.83281062  0.23331225  0.23780779    -0.71000
O200        O  0.83357938  0.27929887  0.28809587    -0.71000
O201        O  0.84398986  0.25876928  0.31575785    -0.71000
O202        O  0.84252006  0.21142196  0.26460683    -0.71000
O203        O  0.88016872  0.25805833  0.28470091    -0.71000
O204        O  0.80679985  0.21150570  0.29612862    -0.71100
V205        V  0.83361744  0.25588813  0.26367364     1.35200
V206        V  0.84319698  0.23535774  0.28976842     1.35200
C207        C  0.78892194  0.21343280  0.28435685     0.78300
C208        C  0.88833404  0.27725219  0.26970412     0.78400
C209        C  0.83658996  0.21398076  0.24250646     0.78200
C210        C  0.83900966  0.27735462  0.31036251     0.78200
O211        O  0.17911089  0.42885179  0.24266189    -0.70900
O212        O  0.10542288  0.40508422  0.25656429    -0.71200
O213        O  0.14241871  0.39367071  0.27425767    -0.71000
O214        O  0.14230821  0.44086569  0.22560309    -0.71000
O215        O  0.13112946  0.41026034  0.19742177    -0.71000
O216        O  0.13017329  0.36215834  0.24680621    -0.71000
O217        O  0.09415588  0.37477644  0.22796308    -0.71000
O218        O  0.16680683  0.39717093  0.21544116    -0.71100
V219        V  0.14210210  0.41652173  0.24924234     1.35200
V220        V  0.13079469  0.38667526  0.22248281     1.35200
C221        C  0.18546019  0.41678389  0.22660997     0.78300
C222        C  0.08724366  0.38606160  0.24411864     0.78400
C223        C  0.13649499  0.36996324  0.26904541     0.78200
C224        C  0.13649877  0.43377879  0.20329046     0.78200
O225        O  0.12166768  0.20684883  0.43650411    -0.70900
O226        O  0.19619250  0.23264112  0.42307641    -0.71200
O227        O  0.16013958  0.19892533  0.45619735    -0.71000
O228        O  0.15698145  0.23974296  0.40263301    -0.71000
O229        O  0.16666128  0.27307348  0.42741771    -0.71000
O230        O  0.17277732  0.23278829  0.48098179    -0.71000
O231        O  0.20629753  0.26692367  0.44670305    -0.71000
O232        O  0.13356617  0.23985129  0.46222533    -0.71100
V233        V  0.15903218  0.22021753  0.43001040     1.35200
V234        V  0.16958524  0.25249026  0.45382028     1.35200
C235        C  0.11514795  0.21889838  0.45241650     0.78300
C236        C  0.21393604  0.25452363  0.43258427     0.78400
C237        C  0.16692005  0.20861888  0.47770097     0.78200
C238        C  0.16064606  0.26308124  0.40581336     0.78200
O239        O  0.50648069  0.39674390  0.40697791    -0.70900
O240        O  0.43242742  0.34827834  0.42158890    -0.71200
O241        O  0.46913702  0.34882191  0.38996678    -0.71000
O242        O  0.47035672  0.39601589  0.43901112    -0.71000
O243        O  0.45854324  0.41636044  0.41234547    -0.71000
O244        O  0.45746129  0.36839555  0.36233868    -0.71000
O245        O  0.42137826  0.36836506  0.39396544    -0.71000
O246        O  0.49406735  0.41646949  0.38019791    -0.71100
V247        V  0.46933498  0.37285011  0.41388714     1.35200
V248        V  0.45804895  0.39198169  0.38774777     1.35200
C249        C  0.51277365  0.41503760  0.39099503     0.78300
C250        C  0.41420502  0.34998976  0.40983818     0.78400
C251        C  0.46341654  0.35052052  0.36778184     0.78200
C252        C  0.46509347  0.41439836  0.43432657     0.78200
O253        O  0.45408500  0.55978907  0.60218454    -0.70900
O254        O  0.52874736  0.60699972  0.59075344    -0.71200
O255        O  0.49095415  0.56023481  0.57106961    -0.71000
O256        O  0.49170710  0.60659001  0.62132744    -0.71000
O257        O  0.50431116  0.58713326  0.64831781    -0.71000
O258        O  0.49777637  0.53681178  0.59866406    -0.71000
O259        O  0.53777101  0.58354275  0.61631900    -0.71000
O260        O  0.46456546  0.54023151  0.63088328    -0.71100
V261        V  0.49156020  0.58299527  0.59680475     1.35200
V262        V  0.50093062  0.56234556  0.62299515     1.35200
C263        C  0.44674226  0.54194065  0.61873280     0.78300
C264        C  0.54604522  0.60335750  0.60197151     0.78400
C265        C  0.49328782  0.54013180  0.57638646     0.78200
C266        C  0.49884434  0.60536840  0.64317259     0.78200
O267        O  0.83887710  0.75686179  0.58396404    -0.70900
O268        O  0.76451700  0.72796000  0.59898267    -0.71200
O269        O  0.80539842  0.72211867  0.61756131    -0.71000
O270        O  0.79887183  0.76312356  0.56565085    -0.71000
O271        O  0.78844579  0.73048029  0.53971917    -0.71000
O272        O  0.79523327  0.68945760  0.59182134    -0.71000
O273        O  0.75526496  0.69570539  0.57296236    -0.71000
O274        O  0.82825939  0.72399632  0.55835469    -0.71100
V275        V  0.80162299  0.74186508  0.59111273     1.35200
V276        V  0.79198892  0.71054953  0.56629532     1.35200
C277        C  0.84613300  0.74503942  0.56854635     0.78300
C278        C  0.74716494  0.70712679  0.58782811     0.78400
C279        C  0.80226051  0.69907323  0.61342428     0.78200
C280        C  0.79275199  0.75395612  0.54385776     0.78200
O281        O  0.79362739  0.53352661  0.77180793    -0.70900
O282        O  0.86998171  0.56520929  0.76429820    -0.71200
O283        O  0.83199533  0.52556230  0.79178926    -0.71000
O284        O  0.83111605  0.57256733  0.74343142    -0.71000
O285        O  0.83515867  0.60098812  0.77192316    -0.71000
O286        O  0.84001131  0.55502918  0.82048532    -0.71000
O287        O  0.87515738  0.59500378  0.79170353    -0.71000
O288        O  0.80065703  0.56198028  0.80130937    -0.71100
V289        V  0.83184403  0.54980256  0.76832654     1.35200
V290        V  0.83767556  0.57767109  0.79580181     1.35200
C291        C  0.78431411  0.54272770  0.78806629     0.78300
C292        C  0.88562532  0.58574454  0.77695401     0.78400
C293        C  0.83638450  0.53214681  0.81430510     0.78200
C294        C  0.83193321  0.59426516  0.74924373     0.78200
O295        O  0.17784723  0.73766430  0.74412057    -0.70900
O296        O  0.10399714  0.69164248  0.76126904    -0.71200
O297        O  0.13776875  0.69055387  0.72731027    -0.71000
O298        O  0.14465283  0.73832203  0.77860637    -0.71000
O299        O  0.13281967  0.75998171  0.75346345    -0.71000
O300        O  0.12547627  0.71120599  0.70144668    -0.71000
O301        O  0.09296957  0.71352298  0.73573193    -0.71000
O302        O  0.16527733  0.75841135  0.71870090    -0.71100
V303        V  0.14079460  0.71489741  0.75232122     1.35200
V304        V  0.12942088  0.73538367  0.72782394     1.35200
C305        C  0.18406080  0.75640555  0.72864839     0.78300
C306        C  0.08578511  0.69475361  0.75108304     0.78400
C307        C  0.13019780  0.69225854  0.70579454     0.78200
C308        C  0.14034795  0.75750323  0.77490161     0.78200
O309        O  0.50710063  0.08925263  0.91807089    -0.70900
O310        O  0.43230856  0.06204729  0.93033288    -0.71200
O311        O  0.47132038  0.05475885  0.95063767    -0.71000
O312        O  0.46855907  0.09723134  0.89863397    -0.71000
O313        O  0.45740824  0.06482855  0.87234160    -0.71000
O314        O  0.46261307  0.02258135  0.92477132    -0.71000
O315        O  0.42303911  0.02937887  0.90492700    -0.71000
O316        O  0.49643673  0.05705650  0.89163053    -0.71100
V317        V  0.46955942  0.07515842  0.92394444     1.35200
V318        V  0.46004600  0.04406566  0.89895039     1.35200
C319        C  0.51437482  0.07742629  0.90261161     0.78300
C320        C  0.41485031  0.04115949  0.91924348     0.78400
C321        C  0.46840645  0.03183293  0.94668032     0.78200
C322        C  0.46233380  0.08853793  0.87676145     0.78200
O323        O  0.12389661  0.90037105  0.94117384    -0.70900
O324        O  0.19885468  0.94899723  0.93368973    -0.71200
O325        O  0.16276896  0.90330693  0.91145894    -0.71000
O326        O  0.15980922  0.94653958  0.96281984    -0.71000
O327        O  0.17049566  0.92577419  0.99007180    -0.71000
O328        O  0.16950182  0.87929873  0.93836671    -0.71000
O329        O  0.20724011  0.92542919  0.95965203    -0.71000
O330        O  0.13293040  0.87899541  0.96913127    -0.71100
V331        V  0.16152194  0.92438309  0.93784072     1.35200
V332        V  0.16989175  0.90280640  0.96380740     1.35200
C333        C  0.11567741  0.88111464  0.95636000     0.78300
C334        C  0.21590505  0.94543395  0.94550335     0.78400
C335        C  0.16573297  0.88343760  0.91603198     0.78200
C336        C  0.16525734  0.94424032  0.98500142     0.78200
O337        O  0.56714143  0.45161506  0.91504209    -0.70900
O338        O  0.61467798  0.52613444  0.92762028    -0.71200
O339        O  0.56659115  0.48918449  0.94471177    -0.71000
O340        O  0.61574742  0.48864402  0.89846752    -0.71000
O341        O  0.59624708  0.49792839  0.86890453    -0.71000
O342        O  0.54762735  0.50035954  0.91603957    -0.71000
O343        O  0.59610499  0.53597241  0.89755864    -0.71000
O344        O  0.54751422  0.46244743  0.88674923    -0.71100
V345        V  0.59061982  0.48904428  0.92090217     1.35200
V346        V  0.57223084  0.49894142  0.89286253     1.35200
C347        C  0.54884765  0.44441960  0.89887464     0.78300
C348        C  0.61370889  0.54377791  0.91429580     0.78400
C349        C  0.54892388  0.49505865  0.93860790     0.78200
C350        C  0.61481795  0.49355465  0.87584675     0.78200
O351        O  0.74925234  0.83437347  0.93598924    -0.70900
O352        O  0.71949347  0.75918520  0.92621176    -0.71200
O353        O  0.71201037  0.79778491  0.90559618    -0.71000
O354        O  0.75672375  0.79595030  0.95587522    -0.71000
O355        O  0.72594606  0.78639199  0.98344638    -0.71000
O356        O  0.68212625  0.79223286  0.93307668    -0.71000
O357        O  0.68799167  0.75166711  0.95237629    -0.71000
O358        O  0.71945513  0.82625100  0.96434011    -0.71100
V359        V  0.73370329  0.79662855  0.93141969     1.35200
V360        V  0.70440280  0.78924445  0.95777157     1.35200
C361        C  0.73937370  0.84304767  0.95207090     0.78300
C362        C  0.69892042  0.74252108  0.93798133     0.78400
C363        C  0.68992178  0.79627286  0.91075247     0.78200
C364        C  0.74913302  0.79050139  0.97808779     0.78200
O365        O  0.72843875  0.17165313  0.77306328    -0.70900
O366        O  0.68014130  0.09819361  0.75546536    -0.71200
O367        O  0.68119444  0.13229668  0.79031961    -0.71000
O368        O  0.72702075  0.13801537  0.73774393    -0.71000
O369        O  0.74933427  0.12657003  0.76236931    -0.71000
O370        O  0.70100110  0.11795497  0.81501483    -0.71000
O371        O  0.70269677  0.08634566  0.77942450    -0.71000
O372        O  0.74804360  0.15775949  0.79852679    -0.71100
V373        V  0.70455803  0.13476670  0.76460258     1.35200
V374        V  0.72488106  0.12241042  0.78828535     1.35200
C375        C  0.74655300  0.17701079  0.78909364     0.78300
C376        C  0.68317217  0.07969059  0.76501773     0.78400
C377        C  0.68267291  0.12376381  0.81146619     0.78200
C378        C  0.74656092  0.13420320  0.74107916     0.78200
O379        O  0.54094353  0.78870331  0.73509687    -0.70900
O380        O  0.56888533  0.86335748  0.74774227    -0.71200
O381        O  0.53348685  0.82752092  0.71605670    -0.71000
O382        O  0.57576934  0.82426339  0.76757571    -0.71000
O383        O  0.60689025  0.83022642  0.74155596    -0.71000
O384        O  0.56642161  0.84058646  0.69021346    -0.71000
O385        O  0.60255743  0.87209494  0.72401993    -0.71000
O386        O  0.57119139  0.79887502  0.70679008    -0.71100
V387        V  0.55543611  0.82614804  0.74114622     1.35200
V388        V  0.58624420  0.83523694  0.71614120     1.35200
C389        C  0.55088600  0.78122543  0.71797224     0.78300
C390        C  0.59062529  0.88056572  0.73784879     0.78400
C391        C  0.54268859  0.83548025  0.69465685     0.78200
C392        C  0.59811019  0.82585263  0.76364576     0.78200
O393        O  0.90042471  0.12977357  0.58180958    -0.70900
O394        O  0.94878031  0.20500394  0.59014758    -0.71200
O395        O  0.90253051  0.16866022  0.61153966    -0.71000
O396        O  0.94682093  0.16577333  0.56118638    -0.71000
O397        O  0.92577167  0.17557567  0.53346325    -0.71000
O398        O  0.87945146  0.17589991  0.58391452    -0.71000
O399        O  0.92565950  0.21283958  0.56315616    -0.71000
O400        O  0.87909216  0.13890970  0.55381386    -0.71100
V401        V  0.92420567  0.16746788  0.58568421     1.35200
V402        V  0.90295988  0.17567934  0.55915890     1.35200
C403        C  0.88150665  0.12166637  0.56618138     0.78300
C404        C  0.94542189  0.22180419  0.57767956     0.78400
C405        C  0.88298035  0.17195400  0.60632353     0.78200
C406        C  0.94427037  0.17054810  0.53886420     0.78200
O407        O  0.09295855  0.51566745  0.59800295    -0.70900
O408        O  0.06652753  0.44114953  0.58254069    -0.71200
O409        O  0.05793232  0.48033564  0.56500030    -0.71000
O410        O  0.10226066  0.47672792  0.61471828    -0.71000
O411        O  0.06989456  0.46302812  0.64122945    -0.71000
O412        O  0.02686551  0.47169861  0.59207847    -0.71000
O413        O  0.03378055  0.43122858  0.60788726    -0.71000
O414        O  0.06219481  0.50319731  0.62604988    -0.71100
V415        V  0.07935903  0.47830775  0.59051747     1.35200
V416        V  0.04884548  0.46754489  0.61627438     1.35200
C417        C  0.08179879  0.52190411  0.61509200     0.78300
C418        C  0.04525437  0.42342116  0.59282944     0.78400
C419        C  0.03511265  0.47718297  0.56994723     0.78200
C420        C  0.09358061  0.46844091  0.63620763     0.78200
O421        O  0.87702033  0.46073008  0.39999067    -0.70900
O422        O  0.90171121  0.53473561  0.41289102    -0.71200
O423        O  0.86795236  0.49820132  0.38018485    -0.71000
O424        O  0.91020421  0.49663107  0.43288214    -0.71000
O425        O  0.94365790  0.50811629  0.40786900    -0.71000
O426        O  0.90058521  0.50905020  0.35437723    -0.71000
O427        O  0.93443805  0.54532117  0.38732101    -0.71000
O428        O  0.91027006  0.47186517  0.37493404    -0.71100
V429        V  0.88988745  0.49787092  0.40597162     1.35200
V430        V  0.92159499  0.50839533  0.38158195     1.35200
C431        C  0.88969448  0.45366123  0.38541737     0.78300
C432        C  0.92259205  0.55272521  0.40244677     0.78400
C433        C  0.87672094  0.50361629  0.35831062     0.78200
C434        C  0.93389774  0.50160311  0.42941668     0.78200
O435        O  0.05978572  0.84303119  0.43921105    -0.70900
O436        O  0.01316699  0.76899845  0.42350135    -0.71200
O437        O  0.01312042  0.80369287  0.45699430    -0.71000
O438        O  0.05999639  0.80872644  0.40538750    -0.71000
O439        O  0.08144344  0.79716632  0.43098795    -0.71000
O440        O  0.03458998  0.79258586  0.48305456    -0.71000
O441        O  0.03485623  0.75830006  0.44967444    -0.71000
O442        O  0.08132597  0.83129043  0.46456326    -0.71100
V443        V  0.03690020  0.80586795  0.43174902     1.35200
V444        V  0.05763715  0.79505654  0.45652182     1.35200
C445        C  0.07885487  0.84972451  0.45440865     0.78300
C446        C  0.01576153  0.75094228  0.43451459     0.78400
C447        C  0.01557552  0.79711173  0.47874478     0.78200
C448        C  0.07912560  0.80435557  0.40939713     0.78200
O449        O  0.42779251  0.17065713  0.27377353    -0.70900
O450        O  0.40332949  0.09633926  0.26290964    -0.71200
O451        O  0.39329022  0.13306609  0.24230078    -0.71000
O452        O  0.43825160  0.13408182  0.29385088    -0.71000
O453        O  0.40552606  0.12067557  0.32009628    -0.71000
O454        O  0.36252378  0.12614752  0.26922734    -0.71000
O455        O  0.37011514  0.08710438  0.28751300    -0.71000
O456        O  0.39751045  0.15997964  0.30213701    -0.71100
V457        V  0.41510628  0.13337323  0.26869090     1.35200
V458        V  0.38453625  0.12367623  0.29423014     1.35200
C459        C  0.41664923  0.17787505  0.28998119     0.78300
C460        C  0.38222000  0.07901320  0.27351663     0.78400
C461        C  0.37054206  0.13020795  0.24698901     0.78200
C462        C  0.42940538  0.12669120  0.31547481     0.78200
O463        O  0.23201177  0.78785142  0.25217463    -0.70900
O464        O  0.28121040  0.86164241  0.26613526    -0.71200
O465        O  0.23301174  0.82522790  0.28375556    -0.71000
O466        O  0.28057714  0.82453852  0.23551179    -0.71000
O467        O  0.26292855  0.83811998  0.20761380    -0.71000
O468        O  0.21254917  0.83504698  0.25535420    -0.71000
O469        O  0.26061903  0.87261913  0.23894374    -0.71000
O470        O  0.21431311  0.80046214  0.22339793    -0.71100
V471        V  0.25625963  0.82495188  0.25892310     1.35200
V472        V  0.23794469  0.83627535  0.23190933     1.35200
C473        C  0.21489225  0.78179481  0.23501701     0.78300
C474        C  0.27936887  0.87970147  0.25434642     0.78400
C475        C  0.21451922  0.82992832  0.27778935     0.78200
C476        C  0.28073906  0.83231025  0.21365296     0.78200
O477        O  0.20767782  0.12553583  0.08445122    -0.70900
O478        O  0.24059723  0.20030635  0.09897726    -0.71200
O479        O  0.20327679  0.16675571  0.06726298    -0.71000
O480        O  0.24472604  0.15847693  0.11692124    -0.71000
O481        O  0.27454534  0.16382453  0.08951580    -0.71000
O482        O  0.23517007  0.17786224  0.04052361    -0.71000
O483        O  0.27302038  0.20756030  0.07398595    -0.71000
O484        O  0.23702675  0.13448206  0.05542885    -0.71100
V485        V  0.22473837  0.16299317  0.09146461     1.35200
V486        V  0.25443480  0.17077426  0.06544427     1.35200
C487        C  0.21624490  0.11757791  0.06657257     0.78300
C488        C  0.26243238  0.21670730  0.08871800     0.78400
C489        C  0.21196784  0.17382633  0.04554556     0.78200
C490        C  0.26625295  0.15880807  0.11167413     0.78200
O491        O  0.40254531  0.51027313  0.10713199    -0.70900
O492        O  0.35526342  0.43570968  0.09276721    -0.71200
O493        O  0.35593884  0.47202035  0.12506372    -0.71000
O494        O  0.40207623  0.47497565  0.07387129    -0.71000
O495        O  0.42426053  0.46442038  0.09964742    -0.71000
O496        O  0.37695337  0.46066893  0.15145818    -0.71000
O497        O  0.37792457  0.42610485  0.11875565    -0.71000
O498        O  0.42361515  0.49875585  0.13319415    -0.71100
V499        V  0.37938178  0.47298158  0.10010528     1.35200
V500        V  0.40026342  0.46267009  0.12518184     1.35200
C501        C  0.42093178  0.51704217  0.12318865     0.78300
C502        C  0.35839363  0.41809728  0.10410622     0.78400
C503        C  0.35851504  0.46609785  0.14695828     0.78200
C504        C  0.42139124  0.47092783  0.07791011     0.78200
C505        C  0.30615387  0.34783739  0.08145764    -0.13500
C506        C  0.30978314  0.33186294  0.09902369     0.16900
C507        C  0.32787108  0.34452772  0.11859935     0.03100
C508        C  0.34267446  0.37232511  0.11974987    -0.12000
C509        C  0.34011152  0.38860819  0.10179510    -0.03100
C510        C  0.32096690  0.37602910  0.08277854     0.02400
C511        C  0.29693110  0.30229673  0.09584216     0.09200
N512        N  0.33155130  0.32936521  0.13757437     0.65600
H513        H  0.35655440  0.38118121  0.13505118     0.18500
N514        N  0.31690454  0.39135123  0.06428706     0.76100
H515        H  0.29241837  0.33840838  0.06615906     0.10000
C516        C  0.26898249  0.28537376  0.09608766     0.03700
C517        C  0.25815343  0.25749665  0.09479484    -0.05000
C518        C  0.27468405  0.24600733  0.09258310    -0.23400
C519        C  0.30262824  0.26304113  0.09179174     0.13000
C520        C  0.31337602  0.29077074  0.09343126    -0.12500
N521        N  0.25134654  0.29613039  0.09756148     0.64600
H522        H  0.23660728  0.24477874  0.09479990     0.12500
N523        N  0.32045377  0.25250650  0.08996979     0.61300
H524        H  0.33491168  0.30349781  0.09285723     0.08600
O525        O  0.29794694  0.39627341  0.06670023    -0.40200
O526        O  0.32809758  0.39467124  0.04349490    -0.39400
O527        O  0.35262445  0.32773365  0.13784275    -0.39400
O528        O  0.31718705  0.32317501  0.15672802    -0.37100
O529        O  0.33106595  0.25295768  0.06939720    -0.38000
O530        O  0.32986848  0.24832023  0.10947205    -0.34100
O531        O  0.24074307  0.29856513  0.07801765    -0.35500
O532        O  0.24191747  0.29741764  0.11828580    -0.39800
C533        C  0.28392615  0.13578021  0.17120848    -0.13500
C534        C  0.31175176  0.14772684  0.16924231     0.16900
C535        C  0.32437913  0.16225632  0.14763762     0.03100
C536        C  0.30920053  0.16521496  0.12890065    -0.12000
C537        C  0.28141861  0.15383696  0.13115562    -0.03100
C538        C  0.26871137  0.13855491  0.15245676     0.02400
C539        C  0.32690955  0.14347024  0.18930951     0.09200
N540        N  0.35266709  0.17465896  0.14468219     0.65600
H541        H  0.31932827  0.17698221  0.11271196     0.18500
N542        N  0.24027499  0.12444986  0.15474996     0.76100
H543        H  0.27380336  0.12355092  0.18716758     0.10000
C544        C  0.32509418  0.15005319  0.21418618     0.03700
C545        C  0.33867874  0.14465641  0.23278338    -0.05000
C546        C  0.35439253  0.13293955  0.22712765    -0.23400
C547        C  0.35577109  0.12581752  0.20233719     0.13000
C548        C  0.34203921  0.13106855  0.18375196    -0.12500
N549        N  0.31029901  0.16308896  0.22076449     0.64600
H550        H  0.33762206  0.15050888  0.25168759     0.12500
N551        N  0.36994014  0.11208353  0.19591694     0.61300
H552        H  0.34272911  0.12486213  0.16490987     0.08600
O553        O  0.22923950  0.13216368  0.17042821    -0.40200
O554        O  0.22705778  0.10147161  0.14525056    -0.39400
O555        O  0.36227016  0.16437223  0.13012822    -0.39400
O556        O  0.36723462  0.19837007  0.15208814    -0.37100
O557        O  0.39197167  0.12440166  0.18471391    -0.38000
O558        O  0.35812646  0.08690026  0.19699244    -0.34100
O559        O  0.28819725  0.15004709  0.23172482    -0.35500
O560        O  0.32183268  0.18828651  0.22074412    -0.39800
C561        C  0.36651716  0.01024767  0.24944903    -0.13500
C562        C  0.34565215  0.99373115  0.26546212     0.16900
C563        C  0.33812492  0.00533481  0.28452148     0.03100
C564        C  0.35094231  0.03299323  0.28695704    -0.12000
C565        C  0.37126354  0.04983121  0.27055669    -0.03100
C566        C  0.37948003  0.03817590  0.25189159     0.02400
C567        C  0.33098603  0.96449424  0.26168498     0.09200
N568        N  0.31648551  0.98933207  0.30077835     0.65600
H569        H  0.34438532  0.04129093  0.30168524     0.18500
N570        N  0.40046986  0.05421853  0.23508565     0.76100
H571        H  0.37259935  0.00138516  0.23483827     0.10000
C572        C  0.31584983  0.95335385  0.24010582     0.03700
C573        C  0.29988643  0.92571800  0.23807350    -0.05000
C574        C  0.29854436  0.90858269  0.25724213    -0.23400
C575        C  0.31474148  0.91971204  0.27838630     0.13000
C576        C  0.33067116  0.94753840  0.28048024    -0.12500
N577        N  0.31539253  0.96990698  0.22064195     0.64600
H578        H  0.28801326  0.91767866  0.22140317     0.12500
N579        N  0.31463355  0.90327049  0.29817761     0.61300
H580        H  0.34253972  0.95602298  0.29708268     0.08600
O581        O  0.42391782  0.05896937  0.23960675    -0.40200
O582        O  0.39475990  0.05866177  0.21370611    -0.39400
O583        O  0.32139393  0.98552742  0.32269474    -0.39400
O584        O  0.29316240  0.98419727  0.29511126    -0.37100
O585        O  0.33229814  0.89635879  0.29882063    -0.38000
O586        O  0.30101772  0.90073135  0.31731943    -0.34100
O587        O  0.32830444  0.97241298  0.20100733    -0.35500
O588        O  0.29821636  0.97747790  0.22105223    -0.39800
C589        C  0.11715420  0.82129924  0.34802350    -0.13500
C590        C  0.13668756  0.81415786  0.35302843     0.16900
C591        C  0.13735687  0.80407314  0.37658470     0.03100
C592        C  0.11838859  0.80089516  0.39448616    -0.12000
C593        C  0.09860830  0.80786095  0.38956620    -0.03100
C594        C  0.09836351  0.81850161  0.36598463     0.02400
C595        C  0.15665603  0.81822633  0.33365857     0.09200
N596        N  0.15685503  0.79644437  0.38244938     0.65600
H597        H  0.11920284  0.79284076  0.41238763     0.18500
N598        N  0.07985415  0.82744738  0.36013569     0.76100
H599        H  0.11683460  0.82965933  0.33013002     0.10000
C600        C  0.14880640  0.80433732  0.31092261     0.03700
C601        C  0.16784697  0.80934907  0.29251507    -0.05000
C602        C  0.19485060  0.82787335  0.29643239    -0.23400
C603        C  0.20271334  0.84220994  0.31895863     0.13000
C604        C  0.18361789  0.83725830  0.33737139    -0.12500
N605        N  0.12174639  0.78416903  0.30674782     0.64600
H606        H  0.16164188  0.79794071  0.27539942     0.12500
N607        N  0.22968883  0.86280159  0.32283118     0.61300
H608        H  0.18977328  0.84866328  0.35448236     0.08600
O609        O  0.05983646  0.81305778  0.34674698    -0.40200
O610        O  0.08636740  0.85157794  0.36389805    -0.39400
O611        O  0.17625450  0.81127300  0.39631039    -0.39400
O612        O  0.15172828  0.77278516  0.37825884    -0.37100
O613        O  0.23680061  0.88628968  0.31583033    -0.38000
O614        O  0.24442950  0.85886887  0.33751440    -0.34100
O615        O  0.10712207  0.78895442  0.29269017    -0.35500
O616        O  0.11418510  0.76041810  0.31316718    -0.39800
C617        C  0.96507055  0.68302120  0.40671396    -0.13500
C618        C  0.96486400  0.66553201  0.42490420     0.16900
C619        C  0.97989647  0.67629541  0.44662808     0.03100
C620        C  0.99569340  0.70402440  0.44941039    -0.12000
C621        C  0.99696303  0.72175527  0.43084778    -0.03100
C622        C  0.98079305  0.71093853  0.40954075     0.02400
C623        C  0.95307764  0.63659993  0.41917814     0.09200
N624        N  0.98013701  0.65921247  0.46564825     0.65600
H625        H  0.00742669  0.71168548  0.46618305     0.18500
N626        N  0.98135072  0.72778171  0.38991814     0.76100
H627        H  0.95390531  0.67492464  0.38971463     0.10000
C628        C  0.92634710  0.61764100  0.42451590     0.03700
C629        C  0.91665669  0.59045030  0.41893239    -0.05000
C630        C  0.93322107  0.58171918  0.40790416    -0.23400
C631        C  0.96003782  0.60101463  0.40258876     0.13000
C632        C  0.96958797  0.62798286  0.40830363    -0.12500
N633        N  0.90890616  0.62564432  0.43572502     0.64600
H634        H  0.89606079  0.57614202  0.42320115     0.12500
N635        N  0.97822528  0.59359669  0.39204139     0.61300
H636        H  0.99024195  0.64240078  0.40429805     0.08600
O637        O  0.96238197  0.73270345  0.38770093    -0.40200
O638        O  0.99738629  0.73282703  0.37216512    -0.39400
O639        O  0.99925125  0.65440056  0.46684162    -0.39400
O640        O  0.96434845  0.65335636  0.48372511    -0.37100
O641        O  0.98165292  0.59492395  0.36890587    -0.38000
O642        O  0.99480249  0.59159825  0.40586062    -0.34100
O643        O  0.89204955  0.62789801  0.42252814    -0.35500
O644        O  0.90669357  0.62514723  0.45898510    -0.39800
C645        C  0.98541178  0.49011832  0.53419413    -0.13500
C646        C  0.98975482  0.48441225  0.50991644     0.16900
C647        C  0.00858402  0.47601522  0.50562202     0.03100
C648        C  0.02284722  0.47361315  0.52547105    -0.12000
C649        C  0.01879382  0.47950081  0.54985019    -0.03100
C650        C  0.99987153  0.48795396  0.55412288     0.02400
C651        C  0.97548635  0.48860763  0.48913045     0.09200
N652        N  0.01316537  0.46953102  0.48120480     0.65600
H653        H  0.03716690  0.46695246  0.52174500     0.18500
N654        N  0.99652290  0.49630501  0.57816072     0.76100
H655        H  0.97132430  0.49715377  0.53757296     0.10000
C656        C  0.94786394  0.47185914  0.48574083     0.03700
C657        C  0.93478892  0.47671394  0.46632154    -0.05000
C658        C  0.94880484  0.49811557  0.44998114    -0.23400
C659        C  0.97640635  0.51517495  0.45360569     0.13000
C660        C  0.98954055  0.51021883  0.47302831    -0.12500
N661        N  0.93298428  0.44941073  0.50148518     0.64600
H662        H  0.91355655  0.46333430  0.46374947     0.12500
N663        N  0.99080841  0.53879877  0.43915884     0.61300
H664        H  0.01070373  0.52365603  0.47592662     0.08600
O665        O  0.97529643  0.48205165  0.59004813    -0.40200
O666        O  0.01175929  0.52013159  0.58494614    -0.39400
O667        O  0.03392065  0.48576602  0.46963983    -0.39400
O668        O  0.99934718  0.44592818  0.47323697    -0.37100
O669        O  0.99366534  0.56063731  0.44733112    -0.38000
O670        O  0.00511464  0.53895802  0.42138482    -0.34100
O671        O  0.91904761  0.45104489  0.51871970    -0.35500
O672        O  0.92962232  0.42680338  0.49520641    -0.39800
C673        C  0.99764861  0.29232246  0.59910409    -0.13500
C674        C  0.99438185  0.30799358  0.58104551     0.16900
C675        C  0.97624390  0.29523978  0.56158765     0.03100
C676        C  0.96123073  0.26734809  0.56076373    -0.12000
C677        C  0.96368062  0.25134498  0.57913112    -0.03100
C678        C  0.98265995  0.26419541  0.59823602     0.02400
C679        C  0.00796720  0.33751090  0.58382629     0.09200
N680        N  0.97239209  0.31042081  0.54276901     0.65600
H681        H  0.94719481  0.25820016  0.54562298     0.18500
N682        N  0.98641870  0.24918854  0.61726894     0.76100
H683        H  0.01149314  0.30201379  0.61428220     0.10000
C684        C  0.99510057  0.34948122  0.59623406     0.03700
C685        C  0.00749240  0.37726407  0.59819371    -0.05000
C686        C  0.03312911  0.39402182  0.58836541    -0.23400
C687        C  0.04618724  0.38194434  0.57601137     0.13000
C688        C  0.03341582  0.35386500  0.57367124    -0.12500
N689        N  0.96954632  0.33357749  0.60745161     0.64600
H690        H  0.99684657  0.38568956  0.60789749     0.12500
N691        N  0.07264735  0.39763742  0.56661228     0.61300
H692        H  0.04352368  0.34476677  0.56413018     0.08600
O693        O  0.00492472  0.24355721  0.61519048    -0.40200
O694        O  0.97532456  0.24664570  0.63800833    -0.39400
O695        O  0.98430306  0.31406662  0.52232964    -0.39400
O696        O  0.95320246  0.31507077  0.54452802    -0.37100
O697        O  0.09226029  0.40185017  0.58007986    -0.38000
O698        O  0.07612303  0.40222399  0.54369356    -0.34100
O699        O  0.96824975  0.32775738  0.63009987    -0.35500
O700        O  0.94882947  0.33033548  0.59643842    -0.39800
C701        C  0.78408972  0.15580723  0.67958812    -0.13500
C702        C  0.80436676  0.14934693  0.68309830     0.16900
C703        C  0.80557703  0.13802408  0.70593202     0.03100
C704        C  0.78654262  0.13311920  0.72437317    -0.12000
C705        C  0.76596324  0.13918548  0.72071882    -0.03100
C706        C  0.76493093  0.15072652  0.69786313     0.02400
C707        C  0.82454893  0.15565874  0.66313392     0.09200
N708        N  0.82574245  0.13097572  0.71062836     0.65600
H709        H  0.78790728  0.12437454  0.74169711     0.18500
N710        N  0.74499916  0.15805707  0.69294888     0.76100
H711        H  0.78336335  0.16544541  0.66260794     0.10000
C712        C  0.81686434  0.14800020  0.63823524     0.03700
C713        C  0.83632271  0.15510322  0.61983003    -0.05000
C714        C  0.86357192  0.16903930  0.62569008    -0.23400
C715        C  0.87136032  0.17715504  0.65040754     0.13000
C716        C  0.85189819  0.17081293  0.66873167    -0.12500
N717        N  0.78943556  0.13175647  0.63147522     0.64600
H718        H  0.83001817  0.14837173  0.60098725     0.12500
N719        N  0.89891872  0.19243697  0.65708150     0.61300
H720        H  0.85826717  0.17801781  0.68743369     0.08600
O721        O  0.72516622  0.14303196  0.67961589    -0.40200
O722        O  0.75004647  0.18167417  0.69726497    -0.39400
O723        O  0.84440020  0.14490348  0.72555179    -0.39400
O724        O  0.82154894  0.10800048  0.70464252    -0.37100
O725        O  0.91000916  0.18122818  0.66819129    -0.38000
O726        O  0.91037476  0.21762266  0.65645079    -0.34100
O727        O  0.77827983  0.14162215  0.61843896    -0.35500
O728        O  0.77858351  0.10670098  0.63351630    -0.39800
C729        C  0.63444943  0.01195462  0.73590636    -0.13500
C730        C  0.63343885  0.99446792  0.75455361     0.16900
C731        C  0.64740270  0.00525974  0.77679292     0.03100
C732        C  0.66244574  0.03296441  0.77985061    -0.12000
C733        C  0.66441259  0.05066282  0.76097845    -0.03100
C734        C  0.64970041  0.03989376  0.73895404     0.02400
C735        C  0.62106514  0.96535546  0.74943634     0.09200
N736        N  0.64825546  0.98836894  0.79570283     0.65600
H737        H  0.67343676  0.04067573  0.79702007     0.18500
N738        N  0.65154023  0.05682417  0.71889466     0.76100
H739        H  0.62415771  0.00383552  0.71850414     0.10000
C740        C  0.59716098  0.94628555  0.76080092     0.03700
C741        C  0.58771078  0.91887032  0.75700736    -0.05000
C742        C  0.60158615  0.90987406  0.74182693    -0.23400
C743        C  0.62533728  0.92926598  0.73008652     0.13000
C744        C  0.63475241  0.95655010  0.73406825    -0.12500
N745        N  0.58183719  0.95442931  0.77560087     0.64600
H746        H  0.56923050  0.90456829  0.76586510     0.12500
N747        N  0.64029312  0.92177522  0.71402888     0.61300
H748        H  0.65323140  0.97106517  0.72531995     0.08600
O749        O  0.63264215  0.06152570  0.71499134    -0.40200
O750        O  0.66904860  0.06240158  0.70241978    -0.39400
O751        O  0.66609954  0.98170228  0.79488100    -0.39400
O752        O  0.63572364  0.98553114  0.81564784    -0.37100
O753        O  0.63676109  0.92123907  0.69093249    -0.38000
O754        O  0.66037192  0.92099955  0.72236386    -0.34100
O755        O  0.56443460  0.95840854  0.76531746    -0.35500
O756        O  0.58115772  0.95144876  0.79876809    -0.39800
C757        C  0.65756061  0.82541588  0.86917609    -0.13500
C758        C  0.64804705  0.80688494  0.84952265     0.16900
C759        C  0.65162259  0.78428751  0.85087976     0.03100
C760        C  0.66482800  0.78096257  0.87123812    -0.12000
C761        C  0.67406896  0.79937305  0.89083162    -0.03100
C762        C  0.67024931  0.82174513  0.88978562     0.02400
C763        C  0.63550829  0.81201530  0.82744943     0.09200
N764        N  0.64150110  0.76422921  0.83199607     0.65600
H765        H  0.66783167  0.76375504  0.87178543     0.18500
N766        N  0.68073425  0.84181402  0.90866533     0.76100
H767        H  0.65589671  0.84337665  0.86820290     0.10000
C768        C  0.61435339  0.81760034  0.83002083     0.03700
C769        C  0.60325406  0.82262184  0.80906306    -0.05000
C770        C  0.61257006  0.82229095  0.78501375    -0.23400
C771        C  0.63419947  0.81737181  0.78243054     0.13000
C772        C  0.64542148  0.81237344  0.80352414    -0.12500
N773        N  0.60328446  0.81750406  0.85374684     0.64600
H774        H  0.58679301  0.82650154  0.81178501     0.12500
N775        N  0.64478123  0.81695439  0.75862546     0.61300
H776        H  0.66222587  0.80897107  0.80116358     0.08600
O777        O  0.66517729  0.84264893  0.92466168    -0.40200
O778        O  0.70385045  0.86164132  0.90622124    -0.39400
O779        O  0.65756905  0.76234009  0.81732969    -0.39400
O780        O  0.61789725  0.74506905  0.83363506    -0.37100
O781        O  0.66511000  0.83764987  0.75083334    -0.38000
O782        O  0.63735857  0.79487407  0.74788143    -0.34100
O783        O  0.60802943  0.83939385  0.86349015    -0.35500
O784        O  0.58428639  0.79598175  0.86194025    -0.39800
C785        C  0.65342767  0.61904052  0.90369521    -0.13500
C786        C  0.66137039  0.62871650  0.92781127     0.16900
C787        C  0.65589509  0.61029155  0.94713992     0.03100
C788        C  0.64145845  0.58265683  0.94228345    -0.12000
C789        C  0.63205413  0.57291340  0.91833993    -0.03100
C790        C  0.63895094  0.59152627  0.89879090     0.02400
C791        C  0.67226852  0.65777244  0.93255043     0.09200
N792        N  0.66465350  0.61938444  0.97180570     0.65600
H793        H  0.63671109  0.56878346  0.95751824     0.18500
N794        N  0.63137448  0.58285946  0.87380237     0.76100
H795        H  0.65766467  0.63301333  0.88862478     0.10000
C796        C  0.69772588  0.67703940  0.92412055     0.03700
C797        C  0.70573771  0.70433969  0.92573028    -0.05000
C798        C  0.68884355  0.71316389  0.93575758    -0.23400
C799        C  0.66338436  0.69370476  0.94451880     0.13000
C800        C  0.65544907  0.66640546  0.94285985    -0.12500
N801        N  0.71588099  0.66919518  0.91431886     0.64600
H802        H  0.72556255  0.71875722  0.91932505     0.12500
N803        N  0.64483069  0.70112937  0.95414557     0.61300
H804        H  0.63555624  0.65173339  0.94892582     0.08600
O805        O  0.64743530  0.58009834  0.85983268    -0.40200
O806        O  0.61163112  0.58352430  0.86444349    -0.39400
O807        O  0.64809353  0.61829273  0.98771891    -0.39400
O808        O  0.68732287  0.62354884  0.97874043    -0.37100
O809        O  0.62819047  0.70227831  0.93972265    -0.38000
O810        O  0.64131337  0.70081775  0.97723009    -0.34100
O811        O  0.71984666  0.67024473  0.89127347    -0.35500
O812        O  0.73192405  0.66700605  0.92874767    -0.39800
C813        C  0.48781187  0.48840094  0.97324471    -0.13500
C814        C  0.49667768  0.49144586  0.99789324     0.16900
C815        C  0.52315073  0.49742894  0.00248404     0.03100
C816        C  0.53978233  0.49935950  0.98277898    -0.12000
C817        C  0.53085597  0.49564450  0.95809162    -0.03100
C818        C  0.50462431  0.49069932  0.95336653     0.02400
C819        C  0.47768392  0.48660207  0.01860954     0.09200
N820        N  0.53353781  0.50170814  0.02711352     0.65600
H821        H  0.55993710  0.50359912  0.98695825     0.18500
N822        N  0.49409591  0.48638224  0.92879997     0.76100
H823        H  0.46737680  0.48341544  0.96939200     0.10000
C824        C  0.46348186  0.50068916  0.02054620     0.03700
C825        C  0.44515364  0.49490672  0.03981128    -0.05000
C826        C  0.44060402  0.47534982  0.05763874    -0.23400
C827        C  0.45463219  0.46108103  0.05562568     0.13000
C828        C  0.47284624  0.46671668  0.03617702    -0.12500
N829        N  0.46799675  0.52149148  0.00354797     0.64600
H830        H  0.43476398  0.50629888  0.04110317     0.12500
N831        N  0.44951608  0.43980813  0.07222969     0.61300
H832        H  0.48284475  0.45499370  0.03445782     0.08600
O833        O  0.49873545  0.50628972  0.91563089    -0.40200
O834        O  0.47484488  0.46376351  0.92311344    -0.39400
O835        O  0.53662316  0.48380013  0.03751622    -0.39400
O836        O  0.54493373  0.52504800  0.03603212    -0.37100
O837        O  0.43127993  0.41641544  0.06713510    -0.38000
O838        O  0.46655900  0.44322419  0.08859107    -0.34100
O839        O  0.45048420  0.51747624  0.98748419    -0.35500
O840        O  0.48605932  0.54510509  0.00813263    -0.39800
C841        C  0.18841464  0.99671087  0.03627793    -0.13500
C842        C  0.17291571  0.00885184  0.03119086     0.16900
C843        C  0.15250343  0.99698123  0.01318885     0.03100
C844        C  0.14927212  0.97475287  0.99970649    -0.12000
C845        C  0.16585700  0.96361698  0.00367285    -0.03100
C846        C  0.18495073  0.97419746  0.02290002     0.02400
C847        C  0.18124526  0.03602548  0.04143019     0.09200
N848        N  0.13551422  0.00787612  0.00765081     0.65600
H849        H  0.13421423  0.96674473  0.98523576     0.18500
N850        N  0.20308239  0.96445747  0.02716989     0.76100
H851        H  0.20470361  0.00588625  0.04948711     0.10000
C852        C  0.18557312  0.04214975  0.06701124     0.03700
C853        C  0.19591831  0.06870299  0.07517540    -0.05000
C854        C  0.20242033  0.08943020  0.05822996    -0.23400
C855        C  0.19745184  0.08324078  0.03285294     0.13000
C856        C  0.18731341  0.05690695  0.02471778    -0.12500
N857        N  0.17994881  0.02178898  0.08487579     0.64600
H858        H  0.19972555  0.07325926  0.09476791     0.12500
N859        N  0.20219647  0.10351750  0.01512736     0.61300
H860        H  0.18492858  0.05293143  0.00496803     0.08600
O861        O  0.19776368  0.94707442  0.04367723    -0.40200
O862        O  0.22672242  0.97784948  0.01936162    -0.39400
O863        O  0.13799369  0.01942139  0.98719228    -0.39400
O864        O  0.11447222  0.00040061  0.02009872    -0.37100
O865        O  0.22319346  0.11347179  0.00224531    -0.38000
O866        O  0.18346883  0.10789264  0.00931035    -0.34100
O867        O  0.19904885  0.02056820  0.09504953    -0.35500
O868        O  0.15703739  0.00957926  0.09451219    -0.39800
C869        C  0.58834652  0.12043572  0.88686258    -0.13500
C870        C  0.59377462  0.10103973  0.87672300     0.16900
C871        C  0.57416931  0.07388772  0.87861426     0.03100
C872        C  0.54906386  0.06681599  0.88844055    -0.12000
C873        C  0.54281459  0.08624978  0.89684113    -0.03100
C874        C  0.56320340  0.11327361  0.89708549     0.02400
C875        C  0.61856008  0.10933926  0.86198377     0.09200
N876        N  0.57874038  0.05330189  0.86903980     0.65600
H877        H  0.53392988  0.04584069  0.88861123     0.18500
N878        N  0.55834464  0.13379174  0.90628338     0.76100
H879        H  0.60344325  0.14138953  0.88604672     0.10000
C880        C  0.62360499  0.12513694  0.84065186     0.03700
C881        C  0.64530509  0.13049897  0.82544751    -0.05000
C882        C  0.66251125  0.12030044  0.83066639    -0.23400
C883        C  0.65837346  0.10565916  0.85281841     0.13000
C884        C  0.63643905  0.10021733  0.86813244    -0.12500
N885        N  0.60578157  0.13440495  0.83316660     0.64600
H886        H  0.64802918  0.14206187  0.80879447     0.12500
N887        N  0.67576714  0.09571642  0.85984368     0.61300
H888        H  0.63310612  0.08842684  0.88473918     0.08600
O889        O  0.55258849  0.14701103  0.89134152    -0.40200
O890        O  0.56525761  0.14230725  0.92810764    -0.39400
O891        O  0.58373605  0.03937190  0.88380555    -0.39400
O892        O  0.57235317  0.04551723  0.84696525    -0.37100
O893        O  0.69497268  0.10935764  0.87434250    -0.38000
O894        O  0.66861435  0.07141483  0.85620221    -0.34100
O895        O  0.61275579  0.15880403  0.83570301    -0.35500
O896        O  0.58612018  0.11978785  0.81948586    -0.39800
C897        C  0.29155940  0.98175473  0.95613345    -0.13500
C898        C  0.30094950  0.99804426  0.93517021     0.16900
C899        C  0.28225344  0.99793202  0.91822378     0.03100
C900        C  0.25474614  0.98127308  0.92224525    -0.12000
C901        C  0.24524668  0.96400092  0.94272716    -0.03100
C902        C  0.26417483  0.96465891  0.95996477     0.02400
C903        C  0.33009045  0.01169691  0.92974216     0.09200
N904        N  0.29092137  0.01446828  0.89672666     0.65600
H905        H  0.24077836  0.98135008  0.90882377     0.18500
N906        N  0.25620073  0.94765506  0.98117066     0.76100
H907        H  0.30572478  0.98126662  0.96907339     0.10000
C908        C  0.34918705  0.03153740  0.94547712     0.03700
C909        C  0.37657309  0.04105438  0.94164327    -0.05000
C910        C  0.38556302  0.03082074  0.92250910    -0.23400
C911        C  0.36620488  0.01102778  0.90659290     0.13000
C912        C  0.33895774  0.00196151  0.91026386    -0.12500
N913        N  0.34106580  0.04226565  0.96541544     0.64600
H914        H  0.39085249  0.05629733  0.95400122     0.12500
N915        N  0.37360628  0.99936003  0.88686660     0.61300
H916        H  0.32448241  0.98626488  0.89836311     0.08600
O917        O  0.25333399  0.92451863  0.97914211    -0.40200
O918        O  0.25921592  0.95789699  0.00243347    -0.39400
O919        O  0.29044499  0.00420202  0.87591882    -0.39400
O920        O  0.29363919  0.03760307  0.89772821    -0.37100
O921        O  0.37485334  0.97840683  0.89092220    -0.38000
O922        O  0.37213573  0.00569645  0.86482217    -0.34100
O923        O  0.34216370  0.03534085  0.98733203    -0.35500
O924        O  0.33842520  0.06248544  0.96169064    -0.39800
C925        C  0.10219508  0.64107581  0.65325806    -0.13500
C926        C  0.11506185  0.62620655  0.65791008     0.16900
C927        C  0.13474009  0.63492529  0.67646928     0.03100
C928        C  0.14038753  0.65746387  0.69070954    -0.12000
C929        C  0.12664227  0.67172981  0.68703984    -0.03100
C930        C  0.10791549  0.66379510  0.66748255     0.02400
C931        C  0.10610975  0.60036629  0.64496567     0.09200
N932        N  0.14773317  0.61993437  0.68232267     0.65600
H933        H  0.15496159  0.66317726  0.70551032     0.18500
N934        N  0.09320828  0.67732870  0.66285897     0.76100
H935        H  0.08696379  0.63447809  0.63898020     0.10000
C936        C  0.08083909  0.57842522  0.65001841     0.03700
C937        C  0.07327982  0.55368158  0.63915016    -0.05000
C938        C  0.09045432  0.54984131  0.62315327    -0.23400
C939        C  0.11532134  0.57222177  0.61707008     0.13000
C940        C  0.12304999  0.59717072  0.62823810    -0.12500
N941        N  0.06315542  0.58055829  0.66729853     0.64600
H942        H  0.05384816  0.53709473  0.64394766     0.12500
N943        N  0.13299980  0.57001818  0.59989698     0.61300
H944        H  0.14245517  0.61410578  0.62398076     0.08600
O945        O  0.06945134  0.66711088  0.67042476    -0.40200
O946        O  0.10129395  0.69515292  0.64640827    -0.39400
O947        O  0.17149669  0.62836812  0.67541708    -0.39400
O948        O  0.13758253  0.60162619  0.69828942    -0.37100
O949        O  0.13237493  0.57568876  0.57744591    -0.38000
O950        O  0.15261802  0.56815640  0.60785429    -0.34100
O951        O  0.04336014  0.58214270  0.65939818    -0.35500
O952        O  0.06394331  0.57502918  0.68976334    -0.39800
C953        C  0.16370915  0.79752625  0.83484509    -0.13500
C954        C  0.14704106  0.80880636  0.83611894     0.16900
C955        C  0.12874144  0.80388380  0.81675917     0.03100
C956        C  0.12719495  0.78762991  0.79666865    -0.12000
C957        C  0.14371040  0.77609884  0.79546183    -0.03100
C958        C  0.16241814  0.78152258  0.81470415     0.02400
C959        C  0.15091233  0.82755393  0.85668647     0.09200
N960        N  0.11117613  0.81475038  0.81755086     0.65600
H961        H  0.11261663  0.78357760  0.78219451     0.18500
N962        N  0.18140232  0.77236714  0.81332594     0.76100
H963        H  0.17845040  0.80189279  0.84924449     0.10000
C964        C  0.14422079  0.81865916  0.88130193     0.03700
C965        C  0.15041371  0.83723210  0.90058044    -0.05000
C966        C  0.16301153  0.86476489  0.89575679    -0.23400
C967        C  0.16998743  0.87362342  0.87105788     0.13000
C968        C  0.16384938  0.85502789  0.85185269    -0.12500
N969        N  0.13018107  0.79077469  0.88684909     0.64600
H970        H  0.14442092  0.82999764  0.91930982     0.12500
N971        N  0.18436933  0.90147225  0.86529495     0.61300
H972        H  0.16978227  0.86212087  0.83306931     0.08600
O973        O  0.17893695  0.75379128  0.82736285    -0.40200
O974        O  0.20320931  0.78636513  0.80216117    -0.39400
O975        O  0.11610323  0.83470872  0.80433406    -0.39400
O976        O  0.08836013  0.80128575  0.82714993    -0.37100
O977        O  0.20953929  0.91382992  0.86648545    -0.38000
O978        O  0.17264211  0.91205942  0.85422823    -0.34100
O979        O  0.14235257  0.78021439  0.89714572    -0.35500
O980        O  0.10499438  0.77819910  0.88607867    -0.39800
C981        C  0.71048241  0.49666903  0.80208719    -0.13500
C982        C  0.70336207  0.51531658  0.81090628     0.16900
C983        C  0.72190834  0.54277827  0.80885979     0.03100
C984        C  0.74743512  0.55101979  0.79944939    -0.12000
C985        C  0.75530804  0.53246299  0.79211640    -0.03100
C986        C  0.73615027  0.50500835  0.79247757     0.02400
C987        C  0.67857752  0.50613547  0.82568756     0.09200
N988        N  0.71613953  0.56252232  0.81857943     0.65600
H989        H  0.76180864  0.57223269  0.79927623     0.18500
N990        N  0.74309152  0.48527925  0.78547521     0.76100
H991        H  0.69644825  0.47547071  0.80376420     0.10000
C992        C  0.65709073  0.50941427  0.81763432     0.03700
C993        C  0.63604956  0.50422791  0.83390017    -0.05000
C994        C  0.63574628  0.49550212  0.85826187    -0.23400
C995        C  0.65665504  0.49070195  0.86570863     0.13000
C996        C  0.67773547  0.49617261  0.84947997    -0.12500
N997        N  0.65613903  0.51762590  0.79291227     0.64600
H998        H  0.62010339  0.50759499  0.82748689     0.12500
N999        N  0.65726441  0.48083793  0.88981426     0.61300
H1000       H  0.69409724  0.49341588  0.85583270     0.08600
O1001       O  0.73898855  0.47662138  0.76350897    -0.40200
O1002       O  0.74681956  0.47214794  0.80212633    -0.39400
O1003       O  0.71992223  0.56835594  0.84130647    -0.39400
O1004       O  0.71370861  0.57821880  0.80390917    -0.37100
O1005       O  0.64773611  0.45603642  0.89286961    -0.38000
O1006       O  0.67240252  0.49684240  0.90618371    -0.34100
O1007       O  0.64559449  0.50006848  0.77620973    -0.35500
O1008       O  0.65932015  0.54065830  0.78917721    -0.39800
C1009       C  0.95790376  0.60155663  0.76457234    -0.13500
C1010       C  0.97239034  0.62803324  0.77318449     0.16900
C1011       C  0.95827809  0.64006781  0.78316708     0.03100
C1012       C  0.93032592  0.62580026  0.78426081    -0.12000
C1013       C  0.91549948  0.59946397  0.77512681    -0.03100
C1014       C  0.92973365  0.58727634  0.76533885     0.02400
C1015       C  0.00155565  0.64431761  0.76806140     0.09200
N1016       N  0.97209651  0.66715411  0.79164023     0.65600
H1017       H  0.92013315  0.63580803  0.79189979     0.18500
N1018       N  0.91603262  0.56055691  0.75600943     0.76100
H1019       H  0.96850461  0.59221046  0.75640860     0.10000
C1020       C  0.02127930  0.64281223  0.78237072     0.03700
C1021       C  0.04853883  0.65910295  0.77656322    -0.05000
C1022       C  0.05669411  0.67715501  0.75663175    -0.23400
C1023       C  0.03658528  0.67825514  0.74225734     0.13000
C1024       C  0.00958298  0.66201205  0.74812333    -0.12500
N1025       N  0.01401780  0.62535092  0.80316482     0.64600
H1026       H  0.06338794  0.65782036  0.78793624     0.12500
N1027       N  0.04298694  0.69536546  0.72124486     0.61300
H1028       H  0.99459636  0.66321620  0.73686201     0.08600
O1029       O  0.91356721  0.54165065  0.76957196    -0.40200
O1030       O  0.91175170  0.55666899  0.73305546    -0.39400
O1031       O  0.97411094  0.68553153  0.77757144    -0.39400
O1032       O  0.97752350  0.67200775  0.81434664    -0.37100
O1033       O  0.04401446  0.71768813  0.72361338    -0.38000
O1034       O  0.04096793  0.68566016  0.69986259    -0.34100
O1035       O  0.01373553  0.60335991  0.80104245    -0.35500
O1036       O  0.01382108  0.63430610  0.82447616    -0.39800
C1037       C  0.96888046  0.77268798  0.53447378    -0.13500
C1038       C  0.95155505  0.78247328  0.52856382     0.16900
C1039       C  0.95748129  0.79967024  0.50819967     0.03100
C1040       C  0.97940642  0.80536961  0.49320659    -0.12000
C1041       C  0.99582106  0.79416951  0.49794834    -0.03100
C1042       C  0.99103921  0.77852479  0.51951070     0.02400
C1043       C  0.92593908  0.77249109  0.54195589     0.09200
N1044       N  0.94018541  0.80978866  0.50133116     0.65600
H1045       H  0.98285864  0.81779013  0.47701832     0.18500
N1046       N  0.00755906  0.76734387  0.52586823     0.76100
H1047       H  0.96462646  0.75966304  0.55033841     0.10000
C1048       C  0.90605288  0.74551879  0.53979513     0.03700
C1049       C  0.88072179  0.73702336  0.54960480    -0.05000
C1050       C  0.87449577  0.75486993  0.56184360    -0.23400
C1051       C  0.89501567  0.78154196  0.56556371     0.13000
C1052       C  0.92041872  0.79018885  0.55531369    -0.12500
N1053       N  0.91077313  0.72683741  0.52629295     0.64600
H1054       H  0.86553672  0.71629725  0.54689560     0.12500
N1055       N  0.89029936  0.80022899  0.57902020     0.61300
H1056       H  0.93578117  0.81094835  0.55737265     0.08600
O1057       O  0.99983647  0.74318822  0.52075257    -0.40200
O1058       O  0.02634585  0.77947421  0.54117037    -0.39400
O1059       O  0.94732297  0.83401808  0.50538624    -0.39400
O1060       O  0.92074704  0.79624713  0.48703720    -0.37100
O1061       O  0.89533523  0.80341122  0.60190862    -0.38000
O1062       O  0.88659192  0.81712886  0.56741493    -0.34100
O1063       O  0.91484649  0.71017257  0.53789518    -0.35500
O1064       O  0.90579934  0.72364010  0.50339776    -0.39800
C1065       C  0.81484598  0.64190374  0.71450695    -0.13500
C1066       C  0.82007986  0.63800857  0.68985058     0.16900
C1067       C  0.83028917  0.62054522  0.68520702     0.03100
C1068       C  0.83408860  0.60687745  0.70486903    -0.12000
C1069       C  0.82869759  0.61058427  0.72952122    -0.03100
C1070       C  0.81914274  0.62858132  0.73424204     0.02400
C1071       C  0.81556283  0.65315816  0.66969287     0.09200
N1072       N  0.83835777  0.61751196  0.66092570     0.65600
H1073       H  0.84192385  0.59356828  0.70077449     0.18500
N1074       N  0.81278254  0.63292511  0.75877407     0.76100
H1075       H  0.80708754  0.65530034  0.71848275     0.10000
C1076       C  0.79850429  0.64044096  0.64926769     0.03700
C1077       C  0.79482332  0.65580064  0.63112559    -0.05000
C1078       C  0.80702215  0.68374386  0.63311675    -0.23400
C1079       C  0.82390588  0.69639897  0.65365400     0.13000
C1080       C  0.82807652  0.68112562  0.67147913    -0.12500
N1081       N  0.78335161  0.61195811  0.64741830     0.64600
H1082       H  0.78149112  0.64560836  0.61572574     0.12500
N1083       N  0.83760023  0.72480353  0.65642799     0.61300
H1084       H  0.84131719  0.69128429  0.68694736     0.08600
O1085       O  0.78910124  0.61932694  0.76646321    -0.40200
O1086       O  0.82883640  0.65395961  0.77021290    -0.39400
O1087       O  0.86012303  0.63580510  0.65237588    -0.39400
O1088       O  0.82797298  0.59451963  0.65128248    -0.37100
O1089       O  0.82827568  0.73547688  0.67084053    -0.38000
O1090       O  0.86131207  0.73835702  0.64879968    -0.34100
O1091       O  0.76345455  0.59937587  0.66141686    -0.35500
O1092       O  0.78544167  0.60052968  0.62823501    -0.39800
C1093       C  0.67770045  0.68578967  0.61396845    -0.13500
C1094       C  0.66139602  0.67059763  0.59407979     0.16900
C1095       C  0.67375197  0.66962505  0.57183489     0.03100
C1096       C  0.70156498  0.68218492  0.57037969    -0.12000
C1097       C  0.71791218  0.69624553  0.59057738    -0.03100
C1098       C  0.70573114  0.69858400  0.61240647     0.02400
C1099       C  0.63176135  0.65484306  0.59699639     0.09200
N1100       N  0.65839283  0.65510184  0.55075191     0.65600
H1101       H  0.71045172  0.68055414  0.55319795     0.18500
N1102       N  0.72134485  0.71268184  0.63349413     0.76100
H1103       H  0.66861081  0.68742428  0.63099582     0.10000
C1104       C  0.61999438  0.63610458  0.61626460     0.03700
C1105       C  0.59225670  0.61989292  0.61731628    -0.05000
C1106       C  0.57535757  0.62183152  0.59964094    -0.23400
C1107       C  0.58701660  0.64138393  0.58093301     0.13000
C1108       C  0.61493524  0.65760157  0.57979842    -0.12500
N1109       N  0.63591183  0.63269353  0.63463613     0.64600
H1110       H  0.58393485  0.60551149  0.63224348     0.12500
N1111       N  0.57099237  0.64483212  0.56273468     0.61300
H1112       H  0.62353415  0.67243153  0.56527266     0.08600
O1113       O  0.72560346  0.70000820  0.65025865    -0.40200
O1114       O  0.72603905  0.73619917  0.63771755    -0.39400
O1115       O  0.65625639  0.66775185  0.53265497    -0.39400
O1116       O  0.65257070  0.63105200  0.54783850    -0.37100
O1117       O  0.56461578  0.66271489  0.56586114    -0.38000
O1118       O  0.56824375  0.63430862  0.54162771    -0.34100
O1119       O  0.63734362  0.64210991  0.65607581    -0.35500
O1120       O  0.64304877  0.61540647  0.63128735    -0.39800
C1121       C  0.52598967  0.65962125  0.69261921    -0.13500
C1122       C  0.50912807  0.67054349  0.68933054     0.16900
C1123       C  0.48685725  0.65745770  0.67352975     0.03100
C1124       C  0.48297915  0.63513772  0.65988268    -0.12000
C1125       C  0.50097276  0.62540345  0.66161419    -0.03100
C1126       C  0.52215017  0.63720976  0.67885991     0.02400
C1127       C  0.51837223  0.69837891  0.69749821     0.09200
N1128       N  0.46894905  0.66765553  0.66998514     0.65600
H1129       H  0.46639125  0.62606939  0.64696046     0.18500
N1130       N  0.54166303  0.62877778  0.68047075     0.76100
H1131       H  0.54351525  0.66987549  0.70433297     0.10000
C1132       C  0.51816024  0.70553959  0.72243432     0.03700
C1133       C  0.52808151  0.73254977  0.72884252    -0.05000
C1134       C  0.53916708  0.75270107  0.71078543    -0.23400
C1135       C  0.53961871  0.74531888  0.68587747     0.13000
C1136       C  0.52902005  0.71842025  0.67950521    -0.12500
N1137       N  0.50836283  0.68571933  0.74138955     0.64600
H1138       H  0.52786172  0.73786203  0.74809761     0.12500
N1139       N  0.55059207  0.76487829  0.66671064     0.61300
H1140       H  0.52959467  0.71313438  0.66028822     0.08600
O1141       O  0.54206103  0.61589796  0.69917582    -0.40200
O1142       O  0.56122613  0.63837527  0.66575854    -0.39400
O1143       O  0.47084850  0.68082486  0.65071579    -0.39400
O1144       O  0.44808944  0.65865458  0.68299472    -0.37100
O1145       O  0.57422457  0.77297501  0.65955289    -0.38000
O1146       O  0.53525217  0.76967215  0.65369787    -0.34100
O1147       O  0.52461679  0.68184654  0.75394448    -0.35500
O1148       O  0.48446612  0.67576925  0.74850173    -0.39800
C1149       C  0.47591004  0.47577128  0.47129160    -0.13500
C1150       C  0.47761907  0.46771847  0.49549706     0.16900
C1151       C  0.47302721  0.44151879  0.49919853     0.03100
C1152       C  0.46775165  0.42446128  0.47902441    -0.12000
C1153       C  0.46725377  0.43276140  0.45469754    -0.03100
C1154       C  0.47092942  0.45865628  0.45091601     0.02400
C1155       C  0.48289476  0.48624740  0.51677125     0.09200
N1156       N  0.47475119  0.43213691  0.52322479     0.65600
H1157       H  0.46472534  0.40459268  0.48253551     0.18500
N1158       N  0.47048351  0.46821469  0.42664016     0.76100
H1159       H  0.47843994  0.49549679  0.46814685     0.10000
C1160       C  0.50447491  0.51276377  0.51676443     0.03700
C1161       C  0.50767004  0.52998498  0.53650104    -0.05000
C1162       C  0.49037123  0.52099364  0.55684856    -0.23400
C1163       C  0.46935795  0.49438029  0.55730586     0.13000
C1164       C  0.46547569  0.47748882  0.53715380    -0.12500
N1165       N  0.52373216  0.52228702  0.49725617     0.64600
H1166       H  0.52398985  0.55044549  0.53609294     0.12500
N1167       N  0.45092063  0.48464748  0.57746154     0.61300
H1168       H  0.44829629  0.45754792  0.53722903     0.08600
O1169       O  0.49218506  0.48207882  0.41528255    -0.40200
O1170       O  0.44959851  0.46791254  0.41908154    -0.39400
O1171       O  0.45371299  0.41465365  0.53359569    -0.39400
O1172       O  0.49707680  0.43598372  0.53089030    -0.37100
O1173       O  0.42985539  0.48624175  0.57639290    -0.38000
O1174       O  0.45271888  0.46951473  0.59328114    -0.34100
O1175       O  0.52451172  0.53954688  0.48240170    -0.35500
O1176       O  0.54326921  0.51811082  0.49829526    -0.39800
C1177       C  0.41741962  0.24136205  0.31086640    -0.13500
C1178       C  0.44426184  0.26065241  0.30743643     0.16900
C1179       C  0.46187597  0.25264657  0.29725741     0.03100
C1180       C  0.45235862  0.22576816  0.29086772    -0.12000
C1181       C  0.42561002  0.20641765  0.29493912    -0.03100
C1182       C  0.40797272  0.21457609  0.30477374     0.02400
C1183       C  0.45369962  0.28760933  0.31836519     0.09200
N1184       N  0.48954455  0.27139064  0.29377363     0.65600
H1185       H  0.46621589  0.21987523  0.28343156     0.18500
N1186       N  0.38037992  0.19593517  0.30890798     0.76100
H1187       H  0.40378055  0.24687088  0.31948721     0.10000
C1188       C  0.44052125  0.30239060  0.31366510     0.03700
C1189       C  0.44508029  0.32390969  0.32908634    -0.05000
C1190       C  0.46267976  0.33112041  0.34922989    -0.23400
C1191       C  0.47753905  0.31775967  0.35253644     0.13000
C1192       C  0.47276908  0.29616672  0.33730533    -0.12500
N1193       N  0.42179334  0.29522011  0.29381438     0.64600
H1194       H  0.43381296  0.33418596  0.32595408     0.12500
N1195       N  0.49746915  0.32565036  0.37136541     0.61300
H1196       H  0.48288519  0.28495683  0.34145880     0.08600
O1197       O  0.36334558  0.19360288  0.29295907    -0.40200
O1198       O  0.37267609  0.18672164  0.33036961    -0.39400
O1199       O  0.50664432  0.27043108  0.30770901    -0.39400
O1200       O  0.49705131  0.28416501  0.27372061    -0.37100
O1201       O  0.49119459  0.31421138  0.39214165    -0.38000
O1202       O  0.52172974  0.33804786  0.36513163    -0.34100
O1203       O  0.39725749  0.28529973  0.29859945    -0.35500
O1204       O  0.43015658  0.30422402  0.27242837    -0.39800
C1205       C  0.03869839  0.18606001  0.45608001    -0.13500
C1206       C  0.03585250  0.19408095  0.47991377     0.16900
C1207       C  0.05876231  0.20979611  0.49420347     0.03100
C1208       C  0.08396326  0.21708493  0.48474490    -0.12000
C1209       C  0.08723980  0.20908389  0.46096316    -0.03100
C1210       C  0.06415829  0.19327467  0.44651284     0.02400
C1211       C  0.00912317  0.18435860  0.49098184     0.09200
N1212       N  0.05669693  0.21853534  0.51849805     0.65600
H1213       H  0.10120345  0.22914050  0.49633795     0.18500
N1214       N  0.06605460  0.18492895  0.42203402     0.76100
H1215       H  0.02105759  0.17373659  0.44505009     0.10000
C1216       C  0.99378962  0.19680931  0.48621049     0.03700
C1217       C  0.97122770  0.19049461  0.50075019    -0.05000
C1218       C  0.96380055  0.17198105  0.52017057    -0.23400
C1219       C  0.97795233  0.15791569  0.52341682     0.13000
C1220       C  0.00048598  0.16435014  0.50897454    -0.12500
N1221       N  0.00196560  0.21720232  0.46789418     0.64600
H1222       H  0.96058890  0.20146007  0.49790229     0.12500
N1223       N  0.96991617  0.13728792  0.54151745     0.61300
H1224       H  0.01196972  0.15435257  0.51247772     0.08600
O1225       O  0.05860864  0.19360068  0.40404224    -0.40200
O1226       O  0.06791947  0.16413218  0.41914006    -0.39400
O1227       O  0.06047652  0.20765321  0.53714407    -0.39400
O1228       O  0.05610307  0.24004110  0.52115076    -0.37100
O1229       O  0.95328610  0.11352955  0.53561168    -0.38000
O1230       O  0.98333481  0.14172761  0.56116272    -0.34100
O1231       O  0.99062655  0.21163558  0.44702276    -0.35500
O1232       O  0.01668954  0.24134374  0.47401682    -0.39800
C1233       C  0.28800458  0.30384512  0.42339230    -0.13500
C1234       C  0.29910978  0.28697099  0.42248557     0.16900
C1235       C  0.28195349  0.25913820  0.42469971     0.03100
C1236       C  0.25415295  0.24871265  0.42700661    -0.12000
C1237       C  0.24306497  0.26568365  0.42795501    -0.03100
C1238       C  0.26046781  0.29361435  0.42636581     0.02400
C1239       C  0.32853096  0.29928095  0.41851430     0.09200
N1240       N  0.29243632  0.24123838  0.42476540     0.65600
H1241       H  0.24126620  0.22729498  0.42879078     0.18500
N1242       N  0.25047735  0.31195255  0.42729075     0.76100
H1243       H  0.30092324  0.32529300  0.42184160     0.10000
C1244       C  0.33994251  0.31186368  0.39590386     0.03700
C1245       C  0.36770341  0.32745167  0.39355898    -0.05000
C1246       C  0.38499596  0.33108304  0.41341652    -0.23400
C1247       C  0.37365550  0.31758904  0.43587472     0.13000
C1248       C  0.34562744  0.30185167  0.43821208    -0.12500
N1249       N  0.32344509  0.30941626  0.37519499     0.64600
H1250       H  0.37577372  0.33715691  0.37597046     0.12500
N1251       N  0.39002434  0.32126033  0.45701070     0.61300
H1252       H  0.33713676  0.29268831  0.45588537     0.08600
O1253       O  0.24533151  0.31989333  0.40736217    -0.40200
O1254       O  0.25239856  0.32439498  0.44715733    -0.39400
O1255       O  0.29595099  0.23272644  0.44513273    -0.39400
O1256       O  0.29264139  0.22970601  0.40492573    -0.37100
O1257       O  0.39504034  0.34007939  0.47195502    -0.38000
O1258       O  0.39466223  0.30284621  0.46335828    -0.34100
O1259       O  0.31942593  0.32848174  0.36983280    -0.35500
O1260       O  0.31732970  0.29075584  0.35976722    -0.39800
C1261       C  0.30529730  0.47495203  0.18019619    -0.13500
C1262       C  0.29509885  0.45340549  0.19671142     0.16900
C1263       C  0.30857695  0.43857579  0.19922028     0.03100
C1264       C  0.33056775  0.44426479  0.18408606    -0.12000
C1265       C  0.33937098  0.46444210  0.16619370    -0.03100
C1266       C  0.32725684  0.48065589  0.16509747     0.02400
C1267       C  0.26792650  0.44368500  0.20721920     0.09200
N1268       N  0.29944227  0.41691875  0.21631334     0.65600
H1269       H  0.33976131  0.43176391  0.18534947     0.18500
N1270       N  0.33659081  0.50260184  0.14829135     0.76100
H1271       H  0.29512740  0.48642197  0.17779659     0.10000
C1272       C  0.26103154  0.46005720  0.22142705     0.03700
C1273       C  0.23428286  0.45068464  0.22823984    -0.05000
C1274       C  0.21386753  0.42539833  0.22056255    -0.23400
C1275       C  0.22097569  0.40913010  0.20627161     0.13000
C1276       C  0.24765489  0.41832672  0.19996908    -0.12500
N1277       N  0.28082392  0.48637794  0.22873468     0.64600
H1278       H  0.22940645  0.46364730  0.23901164     0.12500
N1279       N  0.20136522  0.38346566  0.19725547     0.61300
H1280       H  0.25238880  0.40588569  0.18823192     0.08600
O1281       O  0.35345843  0.52572500  0.15564600    -0.40200
O1282       O  0.32412900  0.49992337  0.12832316    -0.39400
O1283       O  0.28754859  0.39319465  0.20830132    -0.39400
O1284       O  0.30848112  0.42146258  0.23812480    -0.37100
O1285       O  0.19205122  0.38147023  0.17571868    -0.38000
O1286       O  0.19812042  0.36271536  0.20818089    -0.34100
O1287       O  0.28226435  0.50626382  0.21752038    -0.35500
O1288       O  0.29216388  0.48981634  0.24946804    -0.39800
C1289       C  0.13753468  0.27990213  0.34557667    -0.13500
C1290       C  0.15324134  0.30781985  0.34480615     0.16900
C1291       C  0.17164263  0.32091930  0.36429099     0.03100
C1292       C  0.17353701  0.30612390  0.38407393    -0.12000
C1293       C  0.15792764  0.27817045  0.38469307    -0.03100
C1294       C  0.13995935  0.26506021  0.36494696     0.02400
C1295       C  0.14842190  0.32302459  0.32491436     0.09200
N1296       N  0.18910565  0.34918556  0.36392932     0.65600
H1297       H  0.18775916  0.31657370  0.39881387     0.18500
N1298       N  0.12271667  0.23678431  0.36500221     0.76100
H1299       H  0.12258383  0.26946688  0.33139517     0.10000
C1300       C  0.14790013  0.31685392  0.29944259     0.03700
C1301       C  0.14290598  0.33158435  0.28157242    -0.05000
C1302       C  0.13822936  0.35249373  0.28844710    -0.23400
C1303       C  0.13739541  0.35768265  0.31397175     0.13000
C1304       C  0.14250132  0.34307950  0.33174816    -0.12500
N1305       N  0.15319560  0.29626146  0.29129914     0.64600
H1306       H  0.14358384  0.32716552  0.26212763     0.12500
N1307       N  0.13043147  0.37706997  0.32227217     0.61300
H1308       H  0.14125919  0.34713043  0.35118713     0.08600
O1309       O  0.09880092  0.22748121  0.37177580    -0.40200
O1310       O  0.12921858  0.22210251  0.35284542    -0.39400
O1311       O  0.18554319  0.36382048  0.37915802    -0.39400
O1312       O  0.21098917  0.35857749  0.35246722    -0.37100
O1313       O  0.10613745  0.37025588  0.32512646    -0.38000
O1314       O  0.14817749  0.39881159  0.33150471    -0.34100
O1315       O  0.13423608  0.27457813  0.28318065    -0.35500
O1316       O  0.17694262  0.30192910  0.28691476    -0.39800
C1317       C  0.96426843  0.31027585  0.27647538    -0.13500
C1318       C  0.97322845  0.33305671  0.26165353     0.16900
C1319       C  0.95396124  0.33718362  0.24913346     0.03100
C1320       C  0.92658722  0.31876618  0.25174607    -0.12000
C1321       C  0.91762613  0.29606963  0.26682211    -0.03100
C1322       C  0.93702945  0.29211649  0.27942370     0.02400
C1323       C  0.00262999  0.35040966  0.25760933     0.09200
N1324       N  0.96177415  0.36019710  0.23400224     0.65600
H1325       H  0.91224464  0.32247953  0.24204380     0.18500
N1326       N  0.92961905  0.26959255  0.29513733     0.76100
H1327       H  0.97860986  0.30602069  0.28543852     0.10000
C1328       C  0.02117443  0.36012823  0.27748034     0.03700
C1329       C  0.04875138  0.37309982  0.27271148    -0.05000
C1330       C  0.05845884  0.37637239  0.24844655    -0.23400
C1331       C  0.04006044  0.36770242  0.22860712     0.13000
C1332       C  0.01256597  0.35475193  0.23332687    -0.12500
N1333       N  0.01240405  0.35645436  0.30264232     0.64600
H1334       H  0.06262307  0.37959651  0.28816470     0.12500
N1335       N  0.04900005  0.37194489  0.20348493     0.61300
H1336       H  0.99887853  0.34704099  0.21778092     0.08600
O1337       O  0.92840893  0.27219040  0.31823614    -0.40200
O1338       O  0.92973629  0.24917847  0.28666216    -0.39400
O1339       O  0.95943227  0.35748373  0.21078796    -0.39400
O1340       O  0.96481907  0.38146672  0.24380316    -0.37100
O1341       O  0.04757062  0.35270696  0.19098434    -0.38000
O1342       O  0.05285347  0.39289902  0.19252823    -0.34100
O1343       O  0.01515880  0.33997177  0.31595082    -0.35500
O1344       O  0.00840426  0.37390269  0.31290468    -0.39800
C1345       C  0.85821772  0.32567471  0.36534085    -0.13500
C1346       C  0.84994145  0.34338107  0.35644588     0.16900
C1347       C  0.83517910  0.33709490  0.33431365     0.03100
C1348       C  0.83017306  0.31430190  0.32087783    -0.12000
C1349       C  0.84013638  0.29751138  0.32855607    -0.03100
C1350       C  0.85323748  0.30269925  0.35173613     0.02400
C1351       C  0.86056726  0.37038020  0.36760071     0.09200
N1352       N  0.82765849  0.35519792  0.32378739     0.65600
H1353       H  0.81972883  0.31074000  0.30335160     0.18500
N1354       N  0.86282932  0.28579734  0.36111073     0.76100
H1355       H  0.86969201  0.33038543  0.38236151     0.10000
C1356       C  0.84428377  0.37828586  0.38049720     0.03700
C1357       C  0.85430417  0.40531673  0.38678988    -0.05000
C1358       C  0.88047057  0.42486006  0.38039466    -0.23400
C1359       C  0.89708454  0.41645624  0.36860195     0.13000
C1360       C  0.88700063  0.38952846  0.36232234    -0.12500
N1361       N  0.81763021  0.35912845  0.38740062     0.64600
H1362       H  0.84127901  0.41108107  0.39622482     0.12500
N1363       N  0.92426327  0.43494760  0.36271159     0.61300
H1364       H  0.89971323  0.38364927  0.35244218     0.08600
O1365       O  0.84893216  0.26788867  0.37659439    -0.40200
O1366       O  0.88695614  0.29214434  0.35790891    -0.39400
O1367       O  0.84404802  0.37393048  0.31018315    -0.39400
O1368       O  0.80333940  0.34890213  0.32327426    -0.37100
O1369       O  0.94243195  0.43848583  0.37783117    -0.38000
O1370       O  0.93040998  0.44328772  0.34079638    -0.34100
O1371       O  0.81349179  0.34823371  0.40839235    -0.35500
O1372       O  0.79823060  0.35786475  0.37542379    -0.39800
C1373       C  0.83328069  0.14789226  0.14138806    -0.13500
C1374       C  0.82423288  0.13805367  0.16529942     0.16900
C1375       C  0.81018103  0.11015831  0.16904174     0.03100
C1376       C  0.80580414  0.09281737  0.14910202    -0.12000
C1377       C  0.81441575  0.10261478  0.12510984    -0.03100
C1378       C  0.82847322  0.13051371  0.12135369     0.02400
C1379       C  0.82784720  0.15725684  0.18543035     0.09200
N1380       N  0.79860258  0.09904286  0.19249596     0.65600
H1381       H  0.79477209  0.07141991  0.15227934     0.18500
N1382       N  0.83893491  0.14154516  0.09758451     0.76100
H1383       H  0.84409439  0.16929903  0.13824562     0.10000
C1384       C  0.84300346  0.16024101  0.20695657     0.03700
C1385       C  0.84526068  0.17845486  0.22548115    -0.05000
C1386       C  0.83352797  0.19467169  0.22261770    -0.23400
C1387       C  0.81888685  0.19201666  0.20066446     0.13000
C1388       C  0.81602655  0.17330143  0.18259608    -0.12500
N1389       N  0.85775465  0.14640562  0.20954123     0.64600
H1390       H  0.85705519  0.18055508  0.24184176     0.12500
N1391       N  0.80640547  0.20783674  0.19641375     0.61300
H1392       H  0.80442811  0.17129364  0.16610041     0.08600
O1393       O  0.86272341  0.14798665  0.09234353    -0.40200
O1394       O  0.82660792  0.14985445  0.08420111    -0.39400
O1395       O  0.77629809  0.09678844  0.19809530    -0.39400
O1396       O  0.80680582  0.08554473  0.20422430    -0.37100
O1397       O  0.81787033  0.22817471  0.18274104    -0.38000
O1398       O  0.78191694  0.19820683  0.20124202    -0.34100
O1399       O  0.87972147  0.15515660  0.19832658    -0.35500
O1400       O  0.85266136  0.13051461  0.22739177    -0.39800
C1401       C  0.77103601  0.96929624  0.98060973    -0.13500
C1402       C  0.77896498  0.95063616  0.98731752     0.16900
C1403       C  0.79539263  0.95594176  0.00833333     0.03100
C1404       C  0.80214072  0.97850090  0.02287768    -0.12000
C1405       C  0.79277416  0.99629169  0.01728135    -0.03100
C1406       C  0.77779746  0.99200946  0.99531380     0.02400
C1407       C  0.76876449  0.92489088  0.97357934     0.09200
N1408       N  0.80401771  0.93770083  0.01617526     0.65600
H1409       H  0.81405924  0.98145350  0.03935956     0.18500
N1410       N  0.76854466  0.00989618  0.98805194     0.76100
H1411       H  0.75903227  0.96593492  0.96412155     0.10000
C1412       C  0.74111022  0.90686921  0.97155314     0.03700
C1413       C  0.73213643  0.88067877  0.96347221    -0.05000
C1414       C  0.75013002  0.87195313  0.95674126    -0.23400
C1415       C  0.77770408  0.89061917  0.95646834     0.13000
C1416       C  0.78674539  0.91683161  0.96487536    -0.12500
N1417       N  0.72182241  0.91431148  0.97890624     0.64600
H1418       H  0.71081229  0.86677440  0.96314872     0.12500
N1419       N  0.79686623  0.88283562  0.94959145     0.61300
H1420       H  0.80805507  0.93066580  0.96562085     0.08600
O1421       O  0.74488168  0.00419528  0.99293957    -0.40200
O1422       O  0.78184039  0.02802328  0.97254419    -0.39400
O1423       O  0.82796036  0.94349813  0.01270604    -0.39400
O1424       O  0.78972020  0.91918852  0.03099267    -0.37100
O1425       O  0.80694010  0.88827704  0.92819791    -0.38000
O1426       O  0.80774439  0.87602249  0.96616912    -0.34100
O1427       O  0.71014774  0.92040267  0.96251885    -0.35500
O1428       O  0.71221252  0.90886494  0.00047086    -0.39800
C1429       C  0.38076206  0.84785676  0.13936788    -0.13500
C1430       C  0.37665018  0.86291321  0.15754824     0.16900
C1431       C  0.39875254  0.88612789  0.16694349     0.03100
C1432       C  0.42437425  0.89399806  0.15800119    -0.12000
C1433       C  0.42885539  0.87888559  0.13998908    -0.03100
C1434       C  0.40653774  0.85556354  0.13053893     0.02400
C1435       C  0.34985260  0.85265291  0.16873452     0.09200
N1436       N  0.39575097  0.90093981  0.18679599     0.65600
H1437       H  0.44100447  0.91178985  0.16588348     0.18500
N1438       N  0.40960913  0.83914304  0.11242499     0.76100
H1439       H  0.36388498  0.82965533  0.13237748     0.10000
C1440       C  0.33410732  0.86480339  0.16457494     0.03700
C1441       C  0.31067031  0.85669114  0.17832277    -0.05000
C1442       C  0.30263730  0.83666534  0.19641721    -0.23400
C1443       C  0.31769679  0.82345500  0.19937519     0.13000
C1444       C  0.34097289  0.83150442  0.18551153    -0.12500
N1445       N  0.34174474  0.88549732  0.14662449     0.64600
H1446       H  0.29935936  0.86697895  0.17555603     0.12500
N1447       N  0.30977898  0.80182425  0.21631823     0.61300
H1448       H  0.35280845  0.82181072  0.18858898     0.08600
O1449       O  0.40539235  0.84158963  0.08991732    -0.40200
O1450       O  0.41078585  0.81879894  0.11929485    -0.39400
O1451       O  0.39655905  0.89415811  0.20883551    -0.39400
O1452       O  0.39855524  0.92375262  0.18260951    -0.37100
O1453       O  0.30100281  0.77852930  0.20778540    -0.38000
O1454       O  0.31850656  0.80674763  0.23823629    -0.34100
O1455       O  0.33357181  0.87930667  0.12463159    -0.35500
O1456       O  0.35087046  0.90934561  0.15375717    -0.39800
C1457       C  0.47382996  0.94839559  0.02695443    -0.13500
C1458       C  0.49119307  0.97596246  0.02461684     0.16900
C1459       C  0.51130890  0.98910406  0.04273121     0.03100
C1460       C  0.51358904  0.97461723  0.06257138    -0.12000
C1461       C  0.49648644  0.94696290  0.06458719    -0.03100
C1462       C  0.47639585  0.93384501  0.04646879     0.02400
C1463       C  0.48645567  0.99075049  0.00434829     0.09200
N1464       N  0.53020645  0.01693816  0.04076740     0.65600
H1465       H  0.52934388  0.98497422  0.07612258     0.18500
N1466       N  0.45758789  0.90594831  0.04823200     0.76100
H1467       H  0.45762170  0.93809876  0.01382240     0.10000
C1468       C  0.48459366  0.98293693  0.97926407     0.03700
C1469       C  0.47794478  0.99597450  0.96096723    -0.05000
C1470       C  0.47309211  0.01699500  0.96697756    -0.23400
C1471       C  0.47471575  0.02458745  0.99221447     0.13000
C1472       C  0.48131588  0.01149299  0.01044390    -0.12500
N1473       N  0.49016640  0.96228982  0.97195230     0.64600
H1474       H  0.47720354  0.98994746  0.94179619     0.12500
N1475       N  0.46885053  0.04493427  0.99989314     0.61300
H1476       H  0.48172228  0.01716250  0.02968982     0.08600
O1477       O  0.46036852  0.88955182  0.03471202    -0.40200
O1478       O  0.43579085  0.89844682  0.05941798    -0.39400
O1479       O  0.52896582  0.03320263  0.05571057    -0.39400
O1480       O  0.55129325  0.02416870  0.02844658    -0.37100
O1481       O  0.44551799  0.03838357  0.00695034    -0.38000
O1482       O  0.48777810  0.06800203  0.00489879    -0.34100
O1483       O  0.47116086  0.93961762  0.96596069    -0.35500
O1484       O  0.51376945  0.96828987  0.96642698    -0.39800
C1485       C  0.67893265  0.99970893  0.08733632    -0.13500
C1486       C  0.66830271  0.97234206  0.09181914     0.16900
C1487       C  0.68555124  0.96152878  0.09221567     0.03100
C1488       C  0.71310591  0.97826580  0.08870536    -0.12000
C1489       C  0.72386082  0.00573971  0.08414811    -0.03100
C1490       C  0.70633717  0.01636917  0.08324900     0.02400
C1491       C  0.63921873  0.95588497  0.09657437     0.09200
N1492       N  0.67533368  0.93355839  0.09571978     0.65600
H1493       H  0.72608688  0.96958328  0.08899640     0.18500
N1494       N  0.71605368  0.04413741  0.07882405     0.76100
H1495       H  0.66579502  0.00821979  0.08703418     0.10000
C1496       C  0.62888576  0.95501312  0.12037526     0.03700
C1497       C  0.60128647  0.94348390  0.12380171    -0.05000
C1498       C  0.58338940  0.93234538  0.10386962    -0.23400
C1499       C  0.59367416  0.93211906  0.08017875     0.13000
C1500       C  0.62145319  0.94398195  0.07670938    -0.12500
N1501       N  0.64629281  0.96648804  0.14113643     0.64600
H1502       H  0.59379873  0.94353855  0.14223359     0.12500
N1503       N  0.57643720  0.92194231  0.05917168     0.61300
H1504       H  0.62925340  0.94491689  0.05822869     0.08600
O1505       O  0.72094543  0.05978470  0.09694944    -0.40200
O1506       O  0.71426787  0.05176440  0.05738057    -0.39400
O1507       O  0.67053130  0.91859487  0.07706404    -0.39400
O1508       O  0.67651592  0.92497047  0.11687642    -0.37100
O1509       O  0.57119424  0.93737284  0.04681609    -0.38000
O1510       O  0.57079177  0.89942541  0.05032980    -0.34100
O1511       O  0.65179461  0.98939103  0.14880396    -0.35500
O1512       O  0.65193834  0.95194414  0.15441467    -0.39800
C1513       C  0.77637610  0.76961011  0.03320715    -0.13500
C1514       C  0.80253771  0.77815159  0.02506284     0.16900
C1515       C  0.81156969  0.79324253  0.00319987     0.03100
C1516       C  0.79424768  0.79860547  0.98942859    -0.12000
C1517       C  0.76743708  0.78853759  0.99642222    -0.03100
C1518       C  0.75880391  0.77476308  0.01918061     0.02400
C1519       C  0.81872293  0.76760562  0.03680627     0.09200
N1520       N  0.83730692  0.80068834  0.99321704     0.65600
H1521       H  0.80156087  0.80942904  0.97217821     0.18500
N1522       N  0.73196351  0.76441597  0.02755293     0.76100
H1523       H  0.76916313  0.75774797  0.04992663     0.10000
C1524       C  0.84254898  0.78411204  0.04980888     0.03700
C1525       C  0.85958737  0.77420897  0.05651755    -0.05000
C1526       C  0.85336808  0.74799493  0.05038897    -0.23400
C1527       C  0.82858968  0.73103375  0.03873330     0.13000
C1528       C  0.81167684  0.74099415  0.03205291    -0.12500
N1529       N  0.84976143  0.81095059  0.05623346     0.64600
H1530       H  0.87824022  0.78745319  0.06582608     0.12500
N1531       N  0.82024948  0.70366268  0.03342276     0.61300
H1532       H  0.79328601  0.72807026  0.02219464     0.08600
O1533       O  0.71486611  0.74046424  0.02281736    -0.40200
O1534       O  0.72685970  0.77712609  0.04373917    -0.39400
O1535       O  0.84025001  0.78396455  0.98035418    -0.39400
O1536       O  0.85479239  0.82507984  0.99219479    -0.37100
O1537       O  0.82191062  0.69682961  0.01155515    -0.38000
O1538       O  0.80594726  0.68595163  0.04890463    -0.34100
O1539       O  0.84265613  0.81550720  0.07695559    -0.35500
O1540       O  0.86822420  0.83004981  0.04447969    -0.39800
C1541       C  0.99719347  0.81984112  0.00151381    -0.13500
C1542       C  0.00454804  0.80966216  0.98123155     0.16900
C1543       C  0.98780039  0.78252746  0.97460293     0.03100
C1544       C  0.96529594  0.76598826  0.98913426    -0.12000
C1545       C  0.95897316  0.77588186  0.01040693    -0.03100
C1546       C  0.97473498  0.80353471  0.01587766     0.02400
C1547       C  0.03169057  0.82660637  0.97021514     0.09200
N1548       N  0.99361589  0.77132950  0.95344176     0.65600
H1549       H  0.95346705  0.74496505  0.98436153     0.18500
N1550       N  0.96892543  0.81536424  0.03657372     0.76100
H1551       H  0.00991135  0.84043419  0.00726601     0.10000
C1552       C  0.04058325  0.85302525  0.96197701     0.03700
C1553       C  0.06773666  0.87008758  0.95651747    -0.05000
C1554       C  0.08665682  0.86163574  0.95952099    -0.23400
C1555       C  0.07754896  0.83485798  0.96669733     0.13000
C1556       C  0.05042060  0.81777065  0.97189577    -0.12500
N1557       N  0.02240522  0.86306558  0.95960115     0.64600
H1558       H  0.07420048  0.89045528  0.95083779     0.12500
N1559       N  0.09561005  0.82466639  0.96901275     0.61300
H1560       H  0.04422928  0.79779013  0.97858655     0.08600
O1561       O  0.95580794  0.82734083  0.03318873    -0.40200
O1562       O  0.98192188  0.81928186  0.05642274    -0.39400
O1563       O  0.00198661  0.75496824  0.95645560    -0.39400
O1564       O  0.98450754  0.77272860  0.93259673    -0.37100
O1565       O  0.10396094  0.82305519  0.99018125    -0.38000
O1566       O  0.09843957  0.81214850  0.95109575    -0.34100
O1567       O  0.02313522  0.87978609  0.97521798    -0.35500
O1568       O  0.01044228  0.86020908  0.93930154    -0.39800
C1569       C  0.13639857  0.49426736  0.17464660    -0.13500
C1570       C  0.12320128  0.48359002  0.15223317     0.16900
C1571       C  0.11726497  0.45758606  0.14533142     0.03100
C1572       C  0.12294505  0.44209357  0.16166297    -0.12000
C1573       C  0.13464407  0.45211976  0.18494150    -0.03100
C1574       C  0.14231269  0.47900107  0.19091241     0.02400
C1575       C  0.11292447  0.49882503  0.13831982     0.09200
N1576       N  0.10538411  0.44661335  0.12188652     0.65600
H1577       H  0.11731907  0.42178171  0.15637131     0.18500
N1578       N  0.15550516  0.49103257  0.21366001     0.76100
H1579       H  0.14121233  0.51434879  0.18003928     0.10000
C1580       C  0.08628331  0.49282631  0.14150552     0.03700
C1581       C  0.07791845  0.51018454  0.13235077    -0.05000
C1582       C  0.09564917  0.53396168  0.12008721    -0.23400
C1583       C  0.12205321  0.53925502  0.11568409     0.13000
C1584       C  0.13049890  0.52180013  0.12502486    -0.12500
N1585       N  0.06803071  0.47032794  0.15585093     0.64600
H1586       H  0.05745743  0.50539643  0.13578054     0.12500
N1587       N  0.14091849  0.56286459  0.10305384     0.61300
H1588       H  0.15115700  0.52673713  0.12271511     0.08600
O1589       O  0.14231439  0.49337969  0.23120949    -0.40200
O1590       O  0.18067926  0.50429389  0.21422457    -0.39400
O1591       O  0.12027649  0.44909576  0.10376932    -0.39400
O1592       O  0.08090111  0.42946202  0.12079109    -0.37100
O1593       O  0.15670182  0.58326642  0.11541723    -0.38000
O1594       O  0.14553863  0.56148627  0.08041341    -0.34100
O1595       O  0.06642885  0.47307512  0.17886982    -0.35500
O1596       O  0.04976284  0.45006355  0.14505398    -0.39800
C1597       C  0.03527619  0.67108429  0.07346590    -0.13500
C1598       C  0.01164835  0.66471842  0.08623410     0.16900
C1599       C  0.00054050  0.64254280  0.10213453     0.03100
C1600       C  0.01292764  0.62705742  0.10493317    -0.12000
C1601       C  0.03637740  0.63287261  0.09190445    -0.03100
C1602       C  0.04777688  0.65549893  0.07621782     0.02400
C1603       C  0.99677496  0.67897002  0.08051857     0.09200
N1604       N  0.97571683  0.63447225  0.11440047     0.65600
H1605       H  0.00356777  0.60986649  0.11707051     0.18500
N1606       N  0.07172102  0.66278319  0.06270676     0.76100
H1607       H  0.04375731  0.68794081  0.06089065     0.10000
C1608       C  0.99582227  0.69752819  0.09700480     0.03700
C1609       C  0.97864880  0.70778374  0.09215387    -0.05000
C1610       C  0.96228134  0.69988206  0.07098793    -0.23400
C1611       C  0.96447588  0.68234090  0.05384849     0.13000
C1612       C  0.98147697  0.67202158  0.05886037    -0.12500
N1613       N  0.01224653  0.70625212  0.11863423     0.64600
H1614       H  0.97770942  0.72154977  0.10535717     0.12500
N1615       N  0.94979452  0.67489242  0.03114409     0.61300
H1616       H  0.98231845  0.65796144  0.04593813     0.08600
O1617       O  0.09380851  0.68050714  0.07133977    -0.40200
O1618       O  0.07022974  0.65588489  0.04030526    -0.39400
O1619       O  0.95421562  0.61799830  0.10389476    -0.39400
O1620       O  0.97561515  0.63891370  0.13727757    -0.37100
O1621       O  0.96031004  0.68844466  0.01190901    -0.38000
O1622       O  0.92942982  0.65204622  0.02912467    -0.34100
O1623       O  0.03462471  0.72733524  0.11766216    -0.35500
O1624       O  0.00201841  0.69697977  0.13947238    -0.39800
C1625       C  0.12181201  0.66081110  0.19575770    -0.13500
C1626       C  0.14571726  0.68212384  0.18689397     0.16900
C1627       C  0.15399525  0.68105623  0.16262721     0.03100
C1628       C  0.13809973  0.65919923  0.14746643    -0.12000
C1629       C  0.11365086  0.63800854  0.15585836    -0.03100
C1630       C  0.10584065  0.63872029  0.18057911     0.02400
C1631       C  0.16172085  0.70573316  0.20277615     0.09200
N1632       N  0.17788387  0.70268562  0.15268340     0.65600
H1633       H  0.14474378  0.65933970  0.12864229     0.18500
N1634       N  0.08191448  0.61731170  0.19062590     0.76100
H1635       H  0.11548093  0.66138827  0.21456837     0.10000
C1636       C  0.15312009  0.72430836  0.20773766     0.03700
C1637       C  0.17017716  0.74821499  0.21997292    -0.05000
C1638       C  0.19578149  0.75396273  0.22770999    -0.23400
C1639       C  0.20360563  0.73448769  0.22428269     0.13000
C1640       C  0.18667447  0.71071403  0.21159247    -0.12500
N1641       N  0.12784961  0.71994691  0.19900800     0.64600
H1642       H  0.16379502  0.76295946  0.22248121     0.12500
N1643       N  0.22947356  0.73946644  0.23158162     0.61300
H1644       H  0.19337326  0.69639593  0.20792032     0.08600
O1645       O  0.06143200  0.61983661  0.19266125    -0.40200
O1646       O  0.08299116  0.59882621  0.20216896    -0.39400
O1647       O  0.19845971  0.70033764  0.15053429    -0.39400
O1648       O  0.17673062  0.72127250  0.14140880    -0.37100
O1649       O  0.23275359  0.73290304  0.25301378    -0.38000
O1650       O  0.24682830  0.74417689  0.21518143    -0.34100
O1651       O  0.10848466  0.71190473  0.21384867    -0.35500
O1652       O  0.12623632  0.72863405  0.17802625    -0.39800
C1653       C  0.51626221  0.78843911  0.23061376    -0.13500
C1654       C  0.53312028  0.80922043  0.21469601     0.16900
C1655       C  0.55795203  0.81195955  0.20807391     0.03100
C1656       C  0.56502726  0.79337692  0.21638140    -0.12000
C1657       C  0.54773213  0.77161293  0.23127537    -0.03100
C1658       C  0.52349280  0.76982846  0.23921047     0.02400
C1659       C  0.52378993  0.82629755  0.20283331     0.09200
N1660       N  0.57539242  0.83242644  0.19141483     0.65600
H1661       H  0.58398861  0.79561868  0.21028484     0.18500
N1662       N  0.50577911  0.74905618  0.25543054     0.76100
H1663       H  0.49712615  0.78632009  0.23591833     0.10000
C1664       C  0.50442699  0.81573457  0.18401635     0.03700
C1665       C  0.49923079  0.83280570  0.16971380    -0.05000
C1666       C  0.51309722  0.86059553  0.17361302    -0.23400
C1667       C  0.53100397  0.87098897  0.19382459     0.13000
C1668       C  0.53640969  0.85378474  0.20806991    -0.12500
N1669       N  0.49157732  0.78797391  0.17778233     0.64600
H1670       H  0.48505702  0.82426050  0.15457783     0.12500
N1671       N  0.54492623  0.89893941  0.19929850     0.61300
H1672       H  0.55128531  0.86204589  0.22267120     0.08600
O1673       O  0.48519593  0.72918395  0.24673862    -0.40200
O1674       O  0.50778442  0.75312463  0.27850088    -0.39400
O1675       O  0.59643671  0.85216365  0.19959131    -0.39400
O1676       O  0.57244642  0.82829231  0.16837566    -0.37100
O1677       O  0.53602774  0.90788092  0.21595587    -0.38000
O1678       O  0.56860368  0.91318342  0.19181732    -0.34100
O1679       O  0.46752214  0.77293060  0.18381478    -0.35500
O1680       O  0.50251826  0.77967798  0.16257277    -0.39800
C1681       C  0.51270851  0.64027349  0.15383471    -0.13500
C1682       C  0.48553255  0.62548438  0.16006768     0.16900
C1683       C  0.47617962  0.63364974  0.18058390     0.03100
C1684       C  0.49425027  0.65494498  0.19541690    -0.12000
C1685       C  0.52184242  0.66831272  0.19053786    -0.03100
C1686       C  0.53088455  0.66155715  0.16875969     0.02400
C1687       C  0.46916382  0.59851870  0.14895584     0.09200
N1688       N  0.44890139  0.61885566  0.18816123     0.65600
H1689       H  0.48670089  0.66000339  0.21178169     0.18500
N1690       N  0.55861690  0.67430897  0.16267874     0.76100
H1691       H  0.52019792  0.63398340  0.13823900     0.10000
C1692       C  0.44730339  0.59161882  0.13299590     0.03700
C1693       C  0.43221756  0.56520796  0.12417425    -0.05000
C1694       C  0.43848152  0.54535532  0.13106456    -0.23400
C1695       C  0.46079247  0.55270309  0.14681026     0.13000
C1696       C  0.47568049  0.57892536  0.15545472    -0.12500
N1697       N  0.44045181  0.61117791  0.12521925     0.64600
H1698       H  0.41528273  0.56016713  0.11216252     0.12500
N1699       N  0.46870786  0.53385594  0.15445689     0.61300
H1700       H  0.49243740  0.58399396  0.16774950     0.08600
O1701       O  0.57246176  0.66418779  0.17006002    -0.40200
O1702       O  0.56749011  0.69147424  0.14562375    -0.39400
O1703       O  0.44195898  0.59978866  0.20316444    -0.39400
O1704       O  0.43393533  0.62887614  0.18511359    -0.37100
O1705       O  0.48668003  0.53215239  0.14255138    -0.38000
O1706       O  0.46221383  0.52352514  0.17568987    -0.34100
O1707       O  0.45022405  0.62373770  0.10536554    -0.35500
O1708       O  0.42010025  0.61086694  0.13429306    -0.39800
C1709       C  0.78233514  0.50027709  0.28260156    -0.13500
C1710       C  0.80557492  0.51898734  0.29511367     0.16900
C1711       C  0.81051892  0.54538294  0.29799265     0.03100
C1712       C  0.79161346  0.55211005  0.29003932    -0.12000
C1713       C  0.76748709  0.53309666  0.27909508    -0.03100
C1714       C  0.76338169  0.50721398  0.27434012     0.02400
C1715       C  0.82318277  0.51054734  0.30752479     0.09200
N1716       N  0.83371453  0.56514766  0.31068828     0.65600
H1717       H  0.79554893  0.57236976  0.29330022     0.18500
N1718       N  0.73965481  0.48748767  0.26237204     0.76100
H1719       H  0.77852379  0.47999086  0.27993080     0.10000
C1720       C  0.81337732  0.49210647  0.32713455     0.03700
C1721       C  0.83120030  0.48895042  0.34239118    -0.05000
C1722       C  0.85892541  0.50378811  0.33852377    -0.23400
C1723       C  0.86853925  0.52026329  0.31740025     0.13000
C1724       C  0.85063798  0.52364317  0.30221984    -0.12500
N1725       N  0.78557583  0.47811470  0.33308267     0.64600
H1726       H  0.82327695  0.47566091  0.35816175     0.12500
N1727       N  0.89642390  0.53503236  0.31200918     0.61300
H1728       H  0.85835857  0.53757089  0.28689137     0.08600
O1729       O  0.72072141  0.47015898  0.27517971    -0.40200
O1730       O  0.73968623  0.48431957  0.23924676    -0.39400
O1731       O  0.85233907  0.58361837  0.29848807    -0.39400
O1732       O  0.83303579  0.56739760  0.33388690    -0.37100
O1733       O  0.90626362  0.52569557  0.29666907    -0.38000
O1734       O  0.90973018  0.55926316  0.31840016    -0.34100
O1735       O  0.77148154  0.45389794  0.32690043    -0.35500
O1736       O  0.77625285  0.48843891  0.34790457    -0.39800
C1737       C  0.81643284  0.63000265  0.19985874    -0.13500
C1738       C  0.80792239  0.63769861  0.17855149     0.16900
C1739       C  0.78098884  0.63156054  0.17703762     0.03100
C1740       C  0.76299965  0.61698240  0.19594210    -0.12000
C1741       C  0.77141065  0.60898584  0.21699052    -0.03100
C1742       C  0.79852917  0.61596647  0.21909512     0.02400
C1743       C  0.82685618  0.65092676  0.15758142     0.09200
N1744       N  0.77174837  0.64059888  0.15667674     0.65600
H1745       H  0.74226244  0.61199720  0.19423282     0.18500
N1746       N  0.80772581  0.60716063  0.23968272     0.76100
H1747       H  0.83690911  0.63409669  0.20122071     0.10000
C1748       C  0.85133835  0.67464573  0.16104158     0.03700
C1749       C  0.86807762  0.68703832  0.14079470    -0.05000
C1750       C  0.86126531  0.67644199  0.11662759    -0.23400
C1751       C  0.83748404  0.65178552  0.11341297     0.13000
C1752       C  0.82054766  0.63943391  0.13376218    -0.12500
N1753       N  0.85902836  0.68716504  0.18480846     0.64600
H1754       H  0.88637350  0.70569949  0.14410040     0.12500
N1755       N  0.83014064  0.63897854  0.08977588     0.61300
H1756       H  0.80228432  0.62060928  0.13092727     0.08600
O1757       O  0.82128095  0.62360205  0.25646619    -0.40200
O1758       O  0.80730024  0.58504474  0.23837397    -0.39400
O1759       O  0.75656243  0.62399773  0.14070870    -0.39400
O1760       O  0.77411407  0.66359880  0.15750468    -0.37100
O1761       O  0.83721994  0.62210397  0.08402061    -0.38000
O1762       O  0.81202668  0.63989927  0.07740998    -0.34100
O1763       O  0.87749546  0.68627589  0.19659742    -0.35500
O1764       O  0.85192774  0.70385369  0.19119321    -0.39800
C1765       C  0.62968849  0.59450727  0.24313886    -0.13500
C1766       C  0.63767400  0.61864695  0.25579178     0.16900
C1767       C  0.66159937  0.63024069  0.26942013     0.03100
C1768       C  0.67723264  0.61789728  0.26999290    -0.12000
C1769       C  0.66956575  0.59375427  0.25729725    -0.03100
C1770       C  0.64524285  0.58185858  0.24393926     0.02400
C1771       C  0.62151846  0.63218837  0.25415202     0.09200
N1772       N  0.67073288  0.65506289  0.28218311     0.65600
H1773       H  0.69570993  0.62756017  0.28048014     0.18500
N1774       N  0.63560991  0.55668730  0.23174457     0.76100
H1775       H  0.61110301  0.58528920  0.23279267     0.10000
C1776       C  0.61894172  0.64276686  0.23155243     0.03700
C1777       C  0.60658928  0.65842331  0.23097760    -0.05000
C1778       C  0.59628353  0.66360958  0.25258321    -0.23400
C1779       C  0.59730374  0.65158920  0.27496292     0.13000
C1780       C  0.61015687  0.63623617  0.27562218    -0.12500
N1781       N  0.63017275  0.63909100  0.20928746     0.64600
H1782       H  0.60571967  0.66725219  0.21352036     0.12500
N1783       N  0.58707476  0.65619833  0.29740309     0.61300
H1784       H  0.61183711  0.62793413  0.29309871     0.08600
O1785       O  0.63720786  0.55593483  0.20848649    -0.40200
O1786       O  0.62068934  0.53545662  0.24336697    -0.39400
O1787       O  0.66900193  0.65524908  0.30546645    -0.39400
O1788       O  0.68482820  0.67672631  0.27086125    -0.37100
O1789       O  0.60316203  0.67161621  0.31354829    -0.38000
O1790       O  0.56315783  0.64045216  0.30339346    -0.34100
O1791       O  0.61503440  0.62276358  0.19312003    -0.35500
O1792       O  0.65414327  0.65537076  0.20390760    -0.39800
C1793       C  0.58726684  0.44628908  0.37624063    -0.13500
C1794       C  0.59162813  0.46909807  0.36310718     0.16900
C1795       C  0.57099244  0.47546217  0.36179209     0.03100
C1796       C  0.54602807  0.45823666  0.37218020    -0.12000
C1797       C  0.54095141  0.43449124  0.38418953    -0.03100
C1798       C  0.56233113  0.42920773  0.38709563     0.02400
C1799       C  0.61609662  0.48379978  0.34788566     0.09200
N1800       N  0.57455167  0.49848830  0.34859442     0.65600
H1801       H  0.53017141  0.46310034  0.37001899     0.18500
N1802       N  0.55876416  0.40591045  0.39971125     0.76100
H1803       H  0.60306649  0.44122467  0.37735132     0.10000
C1804       C  0.63777534  0.50846024  0.35532983     0.03700
C1805       C  0.65939472  0.52255318  0.33920302    -0.05000
C1806       C  0.65993589  0.51254531  0.31549123    -0.23400
C1807       C  0.63845206  0.48722358  0.30854838     0.13000
C1808       C  0.61692630  0.47326165  0.32471325    -0.12500
N1809       N  0.63813154  0.51946073  0.37916392     0.64600
H1810       H  0.67559531  0.54177071  0.34515999     0.12500
N1811       N  0.63773842  0.47552932  0.28498333     0.61300
H1812       H  0.60033803  0.45421441  0.31886299     0.08600
O1813       O  0.56343424  0.40721632  0.42264136    -0.40200
O1814       O  0.55748983  0.38669147  0.38732788    -0.39400
O1815       O  0.56780559  0.49623401  0.32611353    -0.39400
O1816       O  0.57867668  0.51909413  0.36049887    -0.37100
O1817       O  0.64548443  0.45853815  0.28318998    -0.38000
O1818       O  0.62442792  0.47784257  0.26756114    -0.34100
O1819       O  0.65023557  0.51559101  0.39674396    -0.35500
O1820       O  0.63198798  0.53762479  0.38114270    -0.39800
C1821       C  0.15219259  0.46515006  0.66494211    -0.13500
C1822       C  0.13945586  0.44584536  0.68331773     0.16900
C1823       C  0.11229068  0.43675652  0.68840740     0.03100
C1824       C  0.09798391  0.44570109  0.67391676    -0.12000
C1825       C  0.11029429  0.46358477  0.65422122    -0.03100
C1826       C  0.13805433  0.47412118  0.65048854     0.02400
C1827       C  0.15453443  0.43385264  0.69480605     0.09200
N1828       N  0.09857878  0.41734001  0.70720626     0.65600
H1829       H  0.07677386  0.43743645  0.67727177     0.18500
N1830       N  0.15220959  0.49359179  0.63180708     0.76100
H1831       H  0.17323177  0.47265811  0.66117692     0.10000
C1832       C  0.16137288  0.41769259  0.68041033     0.03700
C1833       C  0.17841844  0.40915086  0.68996688    -0.05000
C1834       C  0.18941852  0.41649132  0.71387342    -0.23400
C1835       C  0.18219066  0.43237797  0.72856159     0.13000
C1836       C  0.16476476  0.44080833  0.71895074    -0.12500
N1837       N  0.15157527  0.41026795  0.65568337     0.64600
H1838       H  0.18351008  0.39702428  0.67815949     0.12500
N1839       N  0.19219572  0.44006732  0.75315623     0.61300
H1840       H  0.15980175  0.45345815  0.73013100     0.08600
O1841       O  0.15821361  0.48644351  0.61180182    -0.40200
O1842       O  0.16358342  0.51809049  0.63738524    -0.39400
O1843       O  0.09401278  0.42478730  0.72775654    -0.39400
O1844       O  0.08589106  0.39289611  0.70142040    -0.37100
O1845       O  0.21160770  0.46317375  0.75702789    -0.38000
O1846       O  0.17818140  0.42646945  0.77118267    -0.34100
O1847       O  0.16626002  0.42313258  0.63769854    -0.35500
O1848       O  0.13080527  0.38813454  0.65177141    -0.39800
C1849       C  0.32394408  0.44387076  0.64799000    -0.13500
C1850       C  0.34067634  0.47056993  0.65513343     0.16900
C1851       C  0.33335818  0.48071789  0.67567469     0.03100
C1852       C  0.31050319  0.46394268  0.68929369    -0.12000
C1853       C  0.29451103  0.43677707  0.68316207    -0.03100
C1854       C  0.30104333  0.42694027  0.66174291     0.02400
C1855       C  0.36652955  0.48723953  0.64221582     0.09200
N1856       N  0.34995593  0.50756362  0.68404685     0.65600
H1857       H  0.30591379  0.47213277  0.70549096     0.18500
N1858       N  0.28547428  0.39963010  0.65428316     0.76100
H1859       H  0.32906505  0.43590733  0.63196099     0.10000
C1860       C  0.38635601  0.47962545  0.64177047     0.03700
C1861       C  0.41190411  0.49743675  0.63301817    -0.05000
C1862       C  0.41830776  0.52284870  0.62417720    -0.23400
C1863       C  0.39791595  0.52965576  0.62268861     0.13000
C1864       C  0.37232978  0.51193997  0.63188505    -0.12500
N1865       N  0.38137657  0.45449284  0.65147192     0.64600
H1866       H  0.42712845  0.49154421  0.63378466     0.12500
N1867       N  0.40316841  0.55494772  0.61323559     0.61300
H1868       H  0.35709432  0.51782058  0.63160049     0.08600
O1869       O  0.29295863  0.38315723  0.66026863    -0.40200
O1870       O  0.26804226  0.39342466  0.63759881    -0.39400
O1871       O  0.34263815  0.52467705  0.68054820    -0.39400
O1872       O  0.36863070  0.51265125  0.69910663    -0.37100
O1873       O  0.39663884  0.55650771  0.59126468    -0.38000
O1874       O  0.40914710  0.57413962  0.62799495    -0.34100
O1875       O  0.37723468  0.43576117  0.63672930    -0.46300
O1876       O  0.38685214  0.45297087  0.67381450    -0.39800
C1877       C  0.43819318  0.11460168  0.82335212    -0.13500
C1878       C  0.45158403  0.14217751  0.82855285     0.16900
C1879       C  0.47103188  0.15195573  0.84748607     0.03100
C1880       C  0.47558597  0.13410656  0.86148285    -0.12000
C1881       C  0.46068175  0.10632003  0.85764285    -0.03100
C1882       C  0.44248234  0.09667607  0.83766907     0.02400
C1883       C  0.44156831  0.15921241  0.81718981     0.09200
N1884       N  0.48427380  0.17947599  0.85464669     0.65600
H1885       H  0.48978626  0.14203450  0.87664330     0.18500
N1886       N  0.42609330  0.06868840  0.83331359     0.76100
H1887       H  0.42299220  0.10671171  0.80902925     0.10000
C1888       C  0.45766488  0.18226008  0.80297695     0.03700
C1889       C  0.44711393  0.19822686  0.79430023    -0.05000
C1890       C  0.42057169  0.19159070  0.79929067    -0.23400
C1891       C  0.40432407  0.16792933  0.81280773     0.13000
C1892       C  0.41494963  0.15228797  0.82162482    -0.12500
N1893       N  0.48438289  0.18926072  0.79646453     0.64600
H1894       H  0.45989535  0.21607988  0.78377879     0.12500
N1895       N  0.37681499  0.15919396  0.81762079     0.61300
H1896       H  0.40224433  0.13458725  0.83238944     0.08600
O1897       O  0.43196223  0.05778234  0.81595057    -0.40200
O1898       O  0.40295794  0.05668657  0.84249922    -0.39400
O1899       O  0.47238026  0.18771875  0.86876924    -0.39400
O1900       O  0.50932751  0.19313834  0.85255796    -0.37100
O1901       O  0.35922382  0.14284155  0.80297539    -0.38000
O1902       O  0.36994774  0.16325195  0.83867507    -0.34100
O1903       O  0.48815046  0.17706565  0.77882569    -0.35500
O1904       O  0.50348471  0.21130606  0.80372791    -0.39800
C1905       C  0.32624083  0.35773406  0.76803003    -0.13500
C1906       C  0.32399448  0.33755429  0.75171287     0.16900
C1907       C  0.30486020  0.32924829  0.73254558     0.03100
C1908       C  0.28880776  0.34112246  0.73002951    -0.12000
C1909       C  0.29039467  0.36073160  0.74670552    -0.03100
C1910       C  0.30960480  0.36916109  0.76585435     0.02400
C1911       C  0.33945365  0.32343282  0.75684920     0.09200
N1912       N  0.29975115  0.30725490  0.71670609     0.65600
H1913       H  0.27419329  0.33407644  0.71518778     0.18500
N1914       N  0.31158837  0.38815680  0.78402009     0.76100
H1915       H  0.34051664  0.36409442  0.78313766     0.10000
C1916       C  0.35602449  0.32054403  0.73911766     0.03700
C1917       C  0.36834592  0.30524532  0.74474436    -0.05000
C1918       C  0.36496384  0.29304111  0.76795366    -0.23400
C1919       C  0.34944483  0.29712631  0.78599016     0.13000
C1920       C  0.33676985  0.31186198  0.78021797    -0.12500
N1921       N  0.36144691  0.33381269  0.71574876     0.64600
H1922       H  0.38052698  0.30278437  0.73078153     0.12500
N1923       N  0.34688024  0.28706980  0.81059005     0.61300
H1924       H  0.32445809  0.31410608  0.79419638     0.08600
O1925       O  0.33034412  0.41200261  0.78267555    -0.40200
O1926       O  0.29840883  0.37999537  0.80383508    -0.39400
O1927       O  0.28685499  0.28380102  0.72510694    -0.39400
O1928       O  0.30169018  0.31066118  0.69356277    -0.37100
O1929       O  0.36362912  0.30137039  0.82686217    -0.38000
O1930       O  0.32531811  0.26691943  0.81714452    -0.34100
O1931       O  0.37670530  0.35878567  0.71495994    -0.35500
O1932       O  0.35660239  0.32032932  0.69604528    -0.39800
C1933       C  0.48820030  0.32920085  0.84524462    -0.13500
C1934       C  0.47794415  0.33580756  0.86595977     0.16900
C1935       C  0.45037694  0.31990175  0.87129393     0.03100
C1936       C  0.43362022  0.29904578  0.85523000    -0.12000
C1937       C  0.44368020  0.29354317  0.83368979    -0.03100
C1938       C  0.47158768  0.30828025  0.82932933     0.02400
C1939       C  0.49509933  0.36200294  0.87855070     0.09200
N1940       N  0.43892686  0.32511169  0.89260894     0.65600
H1941       H  0.41237927  0.28784253  0.85914117     0.18500
N1942       N  0.48344792  0.30271988  0.80851648     0.76100
H1943       H  0.50913296  0.34137047  0.84045438     0.10000
C1944       C  0.52119533  0.37002904  0.88726210     0.03700
C1945       C  0.53804981  0.39663663  0.89489251    -0.05000
C1946       C  0.52965402  0.41576767  0.89358344    -0.23400
C1947       C  0.50323200  0.40736200  0.88571166     0.13000
C1948       C  0.48647665  0.38089040  0.87835908    -0.12500
N1949       N  0.53107763  0.35161212  0.88801712     0.64600
H1950       H  0.55820450  0.40259067  0.90096657     0.12500
N1951       N  0.49271938  0.42524845  0.88532843     0.61300
H1952       H  0.46685026  0.37546736  0.87112958     0.08600
O1953       O  0.49265790  0.28698895  0.81104955    -0.40200
O1954       O  0.49007189  0.31778013  0.78983951    -0.39400
O1955       O  0.42366480  0.33484430  0.88986035    -0.39400
O1956       O  0.43868294  0.31412076  0.91285496    -0.37100
O1957       O  0.49643077  0.43952380  0.86644359    -0.38000
O1958       O  0.47374071  0.42082015  0.89974974    -0.34100
O1959       O  0.54845730  0.35380571  0.87251613    -0.35500
O1960       O  0.52731891  0.33771357  0.90717909    -0.39800
C1961       C  0.45069945  0.84511324  0.62598394    -0.13500
C1962       C  0.47346290  0.86252681  0.63977254     0.16900
C1963       C  0.47860320  0.88881161  0.64419709     0.03100
C1964       C  0.46069414  0.89684231  0.63570653    -0.12000
C1965       C  0.43730631  0.87921369  0.62271959    -0.03100
C1966       C  0.43273047  0.85320976  0.61737723     0.02400
C1967       C  0.49089828  0.85279341  0.65067187     0.09200
N1968       N  0.50118437  0.90719041  0.65849622     0.65600
H1969       H  0.46492600  0.91702476  0.63990352     0.18500
N1970       N  0.40953029  0.83445512  0.60408459     0.76100
H1971       H  0.44662620  0.82490767  0.62218127     0.10000
C1972       C  0.48050371  0.83136375  0.66753181     0.03700
C1973       C  0.49771988  0.82474622  0.67998863    -0.05000
C1974       C  0.52551921  0.83929691  0.67641839    -0.23400
C1975       C  0.53578787  0.85949801  0.65823709     0.13000
C1976       C  0.51844513  0.86603758  0.64554779    -0.12500
N1977       N  0.45280252  0.81762240  0.67387528     0.64600
H1978       H  0.48930074  0.80897211  0.69371047     0.12500
N1979       N  0.56382630  0.87484183  0.65373021     0.61300
H1980       H  0.52668376  0.88224848  0.63226928     0.08600
O1981       O  0.38959282  0.81703841  0.61582045    -0.40200
O1982       O  0.41098838  0.83188979  0.58101838    -0.39400
O1983       O  0.52097122  0.92605401  0.64780272    -0.39400
O1984       O  0.49928716  0.90757248  0.68175169    -0.37100
O1985       O  0.57377497  0.86906462  0.63550713    -0.38000
O1986       O  0.57749505  0.89681366  0.66486221    -0.34100
O1987       O  0.43804003  0.79402019  0.66627467    -0.35500
O1988       O  0.44453044  0.82681559  0.69085879    -0.39800
C1989       C  0.26011895  0.79208199  0.71936614    -0.13500
C1990       C  0.26400189  0.81379387  0.70461188     0.16900
C1991       C  0.24192523  0.81720934  0.69929542     0.03100
C1992       C  0.21659173  0.79876235  0.70810872    -0.12000
C1993       C  0.21222201  0.77626244  0.72197854    -0.03100
C1994       C  0.23458552  0.77344074  0.72816776     0.02400
C1995       C  0.28984982  0.82997083  0.69158493     0.09200
N1996       N  0.24436409  0.83795062  0.68315624     0.65600
H1997       H  0.19996544  0.80170824  0.70315471     0.18500
N1998       N  0.23169013  0.75125158  0.74232727     0.76100
H1999       H  0.27690830  0.78904248  0.72331952     0.10000
C2000       C  0.30627665  0.85772196  0.69548132     0.03700
C2001       C  0.32809044  0.87258198  0.67971606    -0.05000
C2002       C  0.33401481  0.86023344  0.66009958    -0.23400
C2003       C  0.31859759  0.83214386  0.65746651     0.13000
C2004       C  0.29676148  0.81743716  0.67303538    -0.12500
N2005       N  0.30129171  0.87101827  0.71546320     0.64600
H2006       H  0.33991383  0.89403271  0.68238050     0.12500
N2007       N  0.32473986  0.81815624  0.63900867     0.61300
H2008       H  0.28450767  0.79606775  0.67004703     0.08600
O2009       O  0.23714488  0.75431356  0.76513806    -0.40200
O2010       O  0.22972443  0.73099041  0.73127859    -0.39400
O2011       O  0.24289640  0.83405597  0.66006543    -0.39400
O2012       O  0.24104508  0.85652681  0.69176874    -0.37100
O2013       O  0.33931968  0.80827206  0.64463093    -0.38000
O2014       O  0.31129039  0.81087590  0.61924683    -0.34100
O2015       O  0.30964681  0.87008637  0.73682650    -0.35500
O2016       O  0.29488739  0.88860945  0.71081668    -0.39800
C2017       C  0.21538214  0.15015129  0.53804473    -0.13500
C2018       C  0.18994854  0.14530286  0.54492672     0.16900
C2019       C  0.17382290  0.12260290  0.55949815     0.03100
C2020       C  0.18299665  0.10484051  0.56603822    -0.12000
C2021       C  0.20791758  0.10888058  0.55788443    -0.03100
C2022       C  0.22443980  0.13234451  0.54411273     0.02400
C2023       C  0.17942851  0.16138574  0.53260764     0.09200
N2024       N  0.14798762  0.11715351  0.56753520     0.65600
H2025       H  0.17007067  0.08724829  0.57686692     0.18500
N2026       N  0.25012746  0.13808863  0.53521398     0.76100
H2027       H  0.22784010  0.16720523  0.52639388     0.10000
C2028       C  0.19244012  0.18953727  0.53466228     0.03700
C2029       C  0.18688449  0.20456927  0.51759036    -0.05000
C2030       C  0.16879758  0.19210573  0.49803205    -0.23400
C2031       C  0.15438067  0.16378793  0.49718297     0.13000
C2032       C  0.15974424  0.14886778  0.51440479    -0.12500
N2033       N  0.21209988  0.20317339  0.55339605     0.64600
H2034       H  0.19793097  0.22623510  0.51887238     0.12500
N2035       N  0.13488926  0.14976106  0.47840055     0.61300
H2036       H  0.14972697  0.12726410  0.51236795     0.08600
O2037       O  0.27078551  0.15663244  0.54525024    -0.40200
O2038       O  0.25196703  0.13002479  0.51393113    -0.39400
O2039       O  0.12750250  0.09897882  0.55693286    -0.39400
O2040       O  0.14560767  0.12580232  0.58833840    -0.37100
O2041       O  0.11047638  0.14054681  0.48331920    -0.38000
O2042       O  0.14139258  0.14131903  0.45950752    -0.34100
O2043       O  0.23651161  0.21531514  0.54763021    -0.35500
O2044       O  0.20499905  0.20792625  0.57403380    -0.39800
C2045       C  0.29762076  0.93696934  0.57710254    -0.13500
C2046       C  0.30184286  0.95864744  0.59221337     0.16900
C2047       C  0.32231780  0.96807532  0.61002798     0.03100
C2048       C  0.33869713  0.95651799  0.61193323    -0.12000
C2049       C  0.33506606  0.93512836  0.59654267    -0.03100
C2050       C  0.31367865  0.92489208  0.57938035     0.02400
C2051       C  0.28611092  0.97253547  0.58827923     0.09200
N2052       N  0.32729201  0.99003799  0.62582087     0.65600
H2053       H  0.35458255  0.96463238  0.62560178     0.18500
N2054       N  0.30781670  0.90221613  0.56428567     0.76100
H2055       H  0.28173441  0.92938240  0.56342642     0.10000
C2056       C  0.29095249  0.98892981  0.56749738     0.03700
C2057       C  0.27808953  0.00403135  0.56514387    -0.05000
C2058       C  0.25994292  0.00322365  0.58310196    -0.23400
C2059       C  0.25381953  0.98546319  0.60325806     0.13000
C2060       C  0.26724475  0.97066457  0.60586768    -0.12500
N2061       N  0.30990739  0.99142951  0.54912554     0.64600
H2062       H  0.28286057  0.01696393  0.54915137     0.12500
N2063       N  0.23435439  0.98235024  0.62129939     0.61300
H2064       H  0.26306190  0.95776919  0.62181223     0.08600
O2065       O  0.29139107  0.87910989  0.57189472    -0.40200
O2066       O  0.31506348  0.90549912  0.54192403    -0.39400
O2067       O  0.31907633  0.98568432  0.64789290    -0.39400
O2068       O  0.34364912  0.01355751  0.61916715    -0.37100
O2069       O  0.21051906  0.96390385  0.61859878    -0.38000
O2070       O  0.24190413  0.99372546  0.64207852    -0.34100
O2071       O  0.30178507  0.97951874  0.52863820    -0.35500
O2072       O  0.33403778  0.00926911  0.55148517    -0.39800
C2073       C  0.11135538  0.92517958  0.46578617    -0.13500
C2074       C  0.13541384  0.93043835  0.47716773     0.16900
C2075       C  0.14142399  0.90955738  0.47920153     0.03100
C2076       C  0.12314729  0.88390210  0.47070258    -0.12000
C2077       C  0.09842569  0.87814531  0.46039755    -0.03100
C2078       C  0.09291222  0.89936311  0.45735642     0.02400
C2079       C  0.15145073  0.95600791  0.49079560     0.09200
N2080       N  0.16485790  0.91342645  0.49188989     0.65600
H2081       H  0.12800476  0.86806151  0.47314206     0.18500
N2082       N  0.06796255  0.89474837  0.44752397     0.76100
H2083       H  0.10627635  0.94097485  0.46453662     0.10000
C2084       C  0.17766285  0.97520839  0.48395725     0.03700
C2085       C  0.19289925  0.99722298  0.49953694    -0.05000
C2086       C  0.18246637  0.00063408  0.52197609    -0.23400
C2087       C  0.15558978  0.98198552  0.52795695     0.13000
C2088       C  0.14056924  0.96005747  0.51245334    -0.12500
N2089       N  0.18897156  0.97288010  0.46116866     0.64600
H2090       H  0.21325620  0.01133503  0.49428967     0.12500
N2091       N  0.14322194  0.98453430  0.54996069     0.61300
H2092       H  0.12037248  0.94552157  0.51782261     0.08600
O2093       O  0.06670398  0.90079827  0.42532358    -0.40200
O2094       O  0.04905901  0.89016410  0.46211968    -0.39400
O2095       O  0.16429081  0.91110536  0.51513739    -0.39400
O2096       O  0.18319601  0.91256743  0.47982158    -0.37100
O2097       O  0.12922879  0.99583994  0.54885682    -0.38000
O2098       O  0.14114290  0.97039300  0.56854553    -0.34100
O2099       O  0.18561767  0.98322817  0.44190220    -0.35500
O2100       O  0.20737456  0.96698905  0.46158435    -0.39800
C2101       C  0.30802924  0.15683969  0.70767857    -0.13500
C2102       C  0.32259266  0.15683441  0.68673850     0.16900
C2103       C  0.35019673  0.17487293  0.68596719     0.03100
C2104       C  0.36274431  0.19214466  0.70588512    -0.12000
C2105       C  0.34845883  0.19220118  0.72706411    -0.03100
C2106       C  0.32062812  0.17437913  0.72770622     0.02400
C2107       C  0.30869755  0.13875099  0.66541523     0.09200
N2108       N  0.36598563  0.17538415  0.66532692     0.65600
H2109       H  0.38414412  0.20541661  0.70477458     0.18500
N2110       N  0.30468935  0.17460294  0.74787929     0.76100
H2111       H  0.28660287  0.14354107  0.70823510     0.10000
C2112       C  0.29437646  0.11077318  0.66825021     0.03700
C2113       C  0.28041047  0.09436987  0.64814195    -0.05000
C2114       C  0.28057325  0.10522662  0.62485469    -0.23400
C2115       C  0.29526279  0.13320184  0.62184557     0.13000
C2116       C  0.30913496  0.14966048  0.64205456    -0.12500
N2117       N  0.29422651  0.09868893  0.69134715     0.64600
H2118       H  0.26926233  0.07288485  0.65078164     0.12500
N2119       N  0.29410141  0.14532923  0.59921446     0.61300
H2120       H  0.31957022  0.17118491  0.63970058     0.08600
O2121       O  0.29554264  0.15568154  0.76325956    -0.40200
O2122       O  0.29519144  0.19022937  0.74724714    -0.39400
O2123       O  0.37477586  0.19470688  0.65039284    -0.39400
O2124       O  0.37545523  0.15973229  0.66489994    -0.37100
O2125       O  0.27669636  0.15242600  0.59676209    -0.38000
O2126       O  0.31360445  0.15420760  0.58446377    -0.34100
O2127       O  0.27347857  0.08876851  0.70457564    -0.35500
O2128       O  0.31247036  0.09321809  0.69600322    -0.39800
C2129       C  0.88721191  0.47317070  0.86944693    -0.13500
C2130       C  0.86083403  0.46574774  0.87551508     0.16900
C2131       C  0.84522596  0.44165485  0.88839153     0.03100
C2132       C  0.85632045  0.42561598  0.89507930    -0.12000
C2133       C  0.88244676  0.43247968  0.88804491    -0.03100
C2134       C  0.89795519  0.45667282  0.87496847     0.02400
C2135       C  0.84933712  0.48129723  0.86422258     0.09200
N2136       N  0.81787566  0.43277113  0.89403357     0.65600
H2137       H  0.84397616  0.40705713  0.90483754     0.18500
N2138       N  0.92414909  0.46433859  0.86598589     0.76100
H2139       H  0.89907306  0.49117225  0.85873986     0.10000
C2140       C  0.85952160  0.50861641  0.86969093     0.03700
C2141       C  0.85373814  0.52454354  0.85405104    -0.05000
C2142       C  0.83834698  0.51383371  0.83252685    -0.23400
C2143       C  0.82686549  0.48600592  0.82796751     0.13000
C2144       C  0.83226212  0.47012094  0.84392020    -0.12500
N2145       N  0.87675070  0.52068324  0.89044975     0.64600
H2146       H  0.86259976  0.54572007  0.85806933     0.12500
N2147       N  0.81045231  0.47353149  0.80679203     0.61300
H2148       H  0.82464449  0.44922387  0.83929204     0.08600
O2149       O  0.92647163  0.45467955  0.84572654    -0.40200
O2150       O  0.94377021  0.48560540  0.87396009    -0.39400
O2151       O  0.79982802  0.41523119  0.88051208    -0.39400
O2152       O  0.81182587  0.43776357  0.91507609    -0.37100
O2153       O  0.82128452  0.47217261  0.78692730    -0.38000
O2154       O  0.78586873  0.45767894  0.80993463    -0.34100
O2155       O  0.90162331  0.53452948  0.88713271    -0.35500
O2156       O  0.86689263  0.52197461  0.91093207    -0.39800
C2157       C  0.79371863  0.25289960  0.79242157    -0.13500
C2158       C  0.80524940  0.25515546  0.81585688     0.16900
C2159       C  0.79696263  0.23195739  0.83013713     0.03100
C2160       C  0.77766936  0.20718823  0.82099231    -0.12000
C2161       C  0.76584501  0.20457730  0.79764270    -0.03100
C2162       C  0.77397959  0.22785570  0.78327224     0.02400
C2163       C  0.82350289  0.28171409  0.82691062     0.09200
N2164       N  0.80785931  0.23328982  0.85421801     0.65600
H2165       H  0.77178275  0.18975011  0.83253234     0.18500
N2166       N  0.76270448  0.22645230  0.75940712     0.76100
H2167       H  0.79961304  0.27071639  0.78145035     0.10000
C2168       C  0.85035100  0.29748956  0.81951768     0.03700
C2169       C  0.86777331  0.32019802  0.83347324    -0.05000
C2170       C  0.85886917  0.32737257  0.85491559    -0.23400
C2171       C  0.83141668  0.31233377  0.86118630     0.13000
C2172       C  0.81421618  0.28995261  0.84716401    -0.12500
N2173       N  0.86056276  0.28988102  0.79880781     0.64600
H2174       H  0.88864856  0.33141814  0.82820783     0.12500
N2175       N  0.82064012  0.31895268  0.88216925     0.61300
H2176       H  0.79347615  0.27818425  0.85277756     0.08600
O2177       O  0.77522151  0.22619877  0.74031698    -0.40200
O2178       O  0.74360586  0.23119469  0.75730026    -0.39400
O2179       O  0.79448255  0.23223648  0.87312241    -0.39400
O2180       O  0.82780269  0.22991296  0.85654672    -0.37100
O2181       O  0.80991836  0.33331347  0.87924029    -0.38000
O2182       O  0.81641265  0.30577002  0.90190287    -0.34100
O2183       O  0.86377786  0.30175011  0.77842892    -0.35500
O2184       O  0.87147038  0.27575974  0.80222132    -0.39800
C2185       C  0.98403120  0.48215203  0.96868751    -0.13500
C2186       C  0.98544015  0.47301438  0.99240380     0.16900
C2187       C  0.97373001  0.44530715  0.99645873     0.03100
C2188       C  0.96094925  0.42736479  0.97694840    -0.12000
C2189       C  0.95941548  0.43645252  0.95322780    -0.03100
C2190       C  0.97100741  0.46418325  0.94920888     0.02400
C2191       C  0.99871467  0.49271422  0.01269320     0.09200
N2192       N  0.97471840  0.43508993  0.02026292     0.65600
H2193       H  0.95179284  0.40607859  0.98046657     0.18500
N2194       N  0.96694353  0.47424636  0.92648553     0.76100
H2195       H  0.99220697  0.50339256  0.96551898     0.10000
C2196       C  0.02576853  0.51236159  0.01084857     0.03700
C2197       C  0.03776620  0.53134974  0.02963153    -0.05000
C2198       C  0.02341746  0.53140511  0.05070528    -0.23400
C2199       C  0.99607133  0.51194568  0.05239590     0.13000
C2200       C  0.98403733  0.49278366  0.03347267    -0.12500
N2201       N  0.04161113  0.51274570  0.99031628     0.64600
H2202       H  0.05882183  0.54584805  0.02784542     0.12500
N2203       N  0.98000693  0.51195261  0.07256693     0.61300
H2204       H  0.96295767  0.47819510  0.03476609     0.08600
O2205       O  0.98582744  0.48498313  0.91112137    -0.40200
O2206       O  0.94734000  0.47824462  0.92467927    -0.39400
O2207       O  0.95408242  0.42471864  0.03364741    -0.39400
O2208       O  0.99406234  0.43152128  0.02560734    -0.37100
O2209       O  0.96840862  0.52565165  0.07103567    -0.38000
O2210       O  0.97298231  0.49434066  0.08913639    -0.34100
O2211       O  0.04831333  0.53055962  0.97398616    -0.35500
O2212       O  0.05299270  0.49880605  0.99103273    -0.39800
C2213       C  0.12097512  0.17266214  0.96776981    -0.13500
C2214       C  0.14178710  0.19195749  0.98235303     0.16900
C2215       C  0.14495667  0.21775009  0.98419487     0.03100
C2216       C  0.12689168  0.22356121  0.97239169    -0.12000
C2217       C  0.10519055  0.20407130  0.95864922    -0.03100
C2218       C  0.10283848  0.17853773  0.95572694     0.02400
C2219       C  0.15949546  0.18492689  0.99648291     0.09200
N2220       N  0.16549375  0.23783743  0.99927358     0.65600
H2221       H  0.12949615  0.24344739  0.97480582     0.18500
N2222       N  0.08209795  0.15827965  0.94099957     0.76100
H2223       H  0.11864118  0.15282037  0.96594625     0.10000
C2224       C  0.14940010  0.16653600  0.01609670     0.03700
C2225       C  0.16690000  0.16261899  0.03107898    -0.05000
C2226       C  0.19461249  0.17674306  0.02704247    -0.23400
C2227       C  0.20463620  0.19413251  0.00656820     0.13000
C2228       C  0.18703121  0.19816258  0.99157511    -0.12500
N2229       N  0.12159945  0.15291925  0.02201921     0.64600
H2230       H  0.15868249  0.14884981  0.04648967     0.12500
N2231       N  0.23259804  0.20883699  0.00148283     0.61300
H2232       H  0.19497046  0.21224827  0.97637681     0.08600
O2233       O  0.06182897  0.13975627  0.95145095    -0.40200
O2234       O  0.08676183  0.15558286  0.91865327    -0.39400
O2235       O  0.18600039  0.25641285  0.98916437    -0.39400
O2236       O  0.16075623  0.24001026  0.02172177    -0.37100
O2237       O  0.24231792  0.20038596  0.98515187    -0.38000
O2238       O  0.24622332  0.23247930  0.00941801    -0.34100
O2239       O  0.10741636  0.12857164  0.01631344    -0.35500
O2240       O  0.11281046  0.16324866  0.03740566    -0.39800
C2241       C  0.17522933  0.32866528  0.82837853    -0.13500
C2242       C  0.14891113  0.31054124  0.82137717     0.16900
C2243       C  0.14195695  0.30797306  0.79603397     0.03100
C2244       C  0.16139307  0.32328858  0.77836651    -0.12000
C2245       C  0.18759532  0.34189080  0.78545429    -0.03100
C2246       C  0.19444530  0.34440367  0.81083270     0.02400
C2247       C  0.12932593  0.29523430  0.84114981     0.09200
N2248       N  0.11497983  0.29144245  0.78804728     0.65600
H2249       H  0.15559782  0.32146698  0.75904662     0.18500
N2250       N  0.22093004  0.36248168  0.81914508     0.76100
H2251       H  0.18090279  0.33071892  0.84775141     0.10000
C2252       C  0.11649476  0.26711467  0.84238730     0.03700
C2253       C  0.09969061  0.25379725  0.86236221    -0.05000
C2254       C  0.09579897  0.26784679  0.88182046    -0.23400
C2255       C  0.10863542  0.29600820  0.88053292     0.13000
C2256       C  0.12504218  0.30933190  0.86025621    -0.12500
N2257       N  0.12180940  0.25185465  0.82461633     0.64600
H2258       H  0.09046110  0.23218701  0.86309292     0.12500
N2259       N  0.10515664  0.31141758  0.89945691     0.61300
H2260       H  0.13486752  0.33098774  0.85957989     0.08600
O2261       O  0.23716454  0.35400318  0.82238255    -0.40200
O2262       O  0.22606864  0.38475776  0.82824140    -0.39400
O2263       O  0.09858072  0.29983024  0.79066410    -0.39400
O2264       O  0.10959743  0.27259723  0.77301996    -0.37100
O2265       O  0.12311563  0.32296814  0.91562238    -0.38000
O2266       O  0.08756153  0.31823260  0.89680557    -0.34100
O2267       O  0.14308337  0.25072487  0.82645216    -0.35500
O2268       O  0.10284897  0.23451743  0.81172950    -0.39800
C2269       C  0.96577377  0.26227413  0.93861960    -0.13500
C2270       C  0.96614309  0.27322074  0.91535790     0.16900
C2271       C  0.97950833  0.26861502  0.89557645     0.03100
C2272       C  0.99312948  0.25435783  0.89964158    -0.12000
C2273       C  0.99423437  0.24509218  0.92330014    -0.03100
C2274       C  0.97984829  0.24854634  0.94278852     0.02400
C2275       C  0.95608278  0.29254493  0.91326506     0.09200
N2276       N  0.98045550  0.27931894  0.87153693     0.65600
H2277       H  0.00440640  0.25212545  0.88460712     0.18500
N2278       N  0.98030110  0.23919151  0.96718158     0.76100
H2279       H  0.95593806  0.26589993  0.95409713     0.10000
C2280       C  0.92947399  0.28547686  0.91899304     0.03700
C2281       C  0.92161455  0.30505325  0.91900471    -0.05000
C2282       C  0.93982776  0.33182677  0.91330880    -0.23400
C2283       C  0.96659731  0.33891150  0.90806904     0.13000
C2284       C  0.97438025  0.31935500  0.90809541    -0.12500
N2285       N  0.91001763  0.25836926  0.92407065     0.64600
H2286       H  0.90089382  0.29907326  0.92276702     0.12500
N2287       N  0.98648099  0.36608836  0.90387807     0.61300
H2288       H  0.99518406  0.32535763  0.90476365     0.08600
O2289       O  0.96126917  0.21705935  0.97421567    -0.40200
O2290       O  0.99655049  0.25510494  0.98298333    -0.39400
O2291       O  0.00154614  0.29976934  0.86457131    -0.39400
O2292       O  0.96319282  0.26505378  0.85562446    -0.37100
O2293       O  0.99944393  0.38050578  0.92204606    -0.38000
O2294       O  0.99505836  0.37362121  0.88221558    -0.34100
O2295       O  0.90222400  0.25146093  0.94602634    -0.35500
O2296       O  0.89678315  0.24315040  0.90642912    -0.39800
C2297       C  0.92784696  0.10932492  0.05231586    -0.13500
C2298       C  0.93405001  0.13398280  0.04162373     0.16900
C2299       C  0.91402414  0.14126874  0.04022787     0.03100
C2300       C  0.88814378  0.12337550  0.04804605    -0.12000
C2301       C  0.88131742  0.09786721  0.05688734    -0.03100
C2302       C  0.90171917  0.09125207  0.06000513     0.02400
C2303       C  0.95913110  0.14888342  0.02731891     0.09200
N2304       N  0.91871626  0.16538193  0.02835542     0.65600
H2305       H  0.87286537  0.12904787  0.04587913     0.18500
N2306       N  0.89593181  0.06556354  0.06882994     0.76100
H2307       H  0.94301280  0.10337555  0.05321883     0.10000
C2308       C  0.97788190  0.17597932  0.03182764     0.03700
C2309       C  0.99829143  0.19019449  0.01463134    -0.05000
C2310       C  0.00054667  0.17783643  0.99298165    -0.23400
C2311       C  0.98280398  0.15016581  0.98951761     0.13000
C2312       C  0.96239170  0.13614299  0.00656618    -0.12500
N2313       N  0.97665224  0.18926812  0.05377590     0.64600
H2314       H  0.01195839  0.21125763  0.01793625     0.12500
N2315       N  0.98464730  0.13601999  0.96848144     0.61300
H2316       H  0.94815974  0.11527700  0.00293133     0.08600
O2317       O  0.90195770  0.06324606  0.09078951    -0.40200
O2318       O  0.89072688  0.04704070  0.05347132    -0.39400
O2319       O  0.91841486  0.16615341  0.00501870    -0.39400
O2320       O  0.91609772  0.18264509  0.04065389    -0.37100
O2321       O  0.99729938  0.12337611  0.97032728    -0.38000
O2322       O  0.96900606  0.13124348  0.95042305    -0.34100
O2323       O  0.98621527  0.18597572  0.07361429    -0.35500
O2324       O  0.97289243  0.20903542  0.05195079    -0.39800
C2325       C  0.45872042  0.09954017  0.36244521    -0.13500
C2326       C  0.48526317  0.12048610  0.36336909     0.16900
C2327       C  0.49221913  0.14446319  0.35073569     0.03100
C2328       C  0.47314104  0.14655670  0.33639667    -0.12000
C2329       C  0.44702795  0.12513090  0.33435904    -0.03100
C2330       C  0.43959213  0.10160356  0.34796939     0.02400
C2331       C  0.50617580  0.11507123  0.37315511     0.09200
N2332       N  0.51892797  0.16638600  0.35133281     0.65600
H2333       H  0.47905568  0.16473683  0.32598254     0.18500
N2334       N  0.41384243  0.07855950  0.34484862     0.76100
H2335       H  0.45333452  0.08065775  0.37132488     0.10000
C2336       C  0.50652787  0.10763001  0.39797380     0.03700
C2337       C  0.52519335  0.10007916  0.40547734    -0.05000
C2338       C  0.54286503  0.09890754  0.38834285    -0.23400
C2339       C  0.54264190  0.10651087  0.36362532     0.13000
C2340       C  0.52456460  0.11471780  0.35632592    -0.12500
N2341       N  0.48745755  0.10664452  0.41546513     0.64600
H2342       H  0.52491753  0.09373511  0.42442988     0.12500
N2343       N  0.56021047  0.10530029  0.34558392     0.61300
H2344       H  0.52405867  0.11966808  0.33703366     0.08600
O2345       O  0.39722254  0.07117400  0.36236613    -0.40200
O2346       O  0.40997472  0.06269411  0.32712023    -0.39400
O2347       O  0.53379438  0.17100808  0.33269505    -0.39400
O2348       O  0.52541729  0.18417565  0.36776542    -0.37100
O2349       O  0.55188995  0.08512578  0.33160335    -0.38000
O2350       O  0.58179631  0.12616447  0.34045269    -0.34100
O2351       O  0.46736464  0.08440911  0.42058603    -0.35500
O2352       O  0.49368860  0.12637783  0.42958330    -0.39800
C2353       C  0.72676576  0.15143602  0.30637029    -0.13500
C2354       C  0.70755259  0.15966974  0.30592372     0.16900
C2355       C  0.71469713  0.18497737  0.29568207     0.03100
C2356       C  0.74098227  0.20186504  0.28753766    -0.12000
C2357       C  0.76042463  0.19397894  0.28924699    -0.03100
C2358       C  0.75270586  0.16795325  0.29778191     0.02400
C2359       C  0.68198943  0.14329701  0.31957926     0.09200
N2360       N  0.69564491  0.19398058  0.29375382     0.65600
H2361       H  0.74642109  0.22162444  0.28068817     0.18500
N2362       N  0.77101546  0.15792104  0.29790738     0.76100
H2363       H  0.72206808  0.13241551  0.31455291     0.10000
C2364       C  0.66654936  0.11522424  0.31654755     0.03700
C2365       C  0.64586638  0.09998805  0.33319491    -0.05000
C2366       C  0.64011862  0.11203254  0.35310939    -0.23400
C2367       C  0.65455312  0.14019808  0.35533294     0.13000
C2368       C  0.67530429  0.15539219  0.33881312    -0.12500
N2369       N  0.67196846  0.10174546  0.29702243     0.64600
H2370       H  0.63488069  0.07842439  0.33100891     0.12500
N2371       N  0.64858813  0.15376121  0.37437716     0.61300
H2372       H  0.68715850  0.17676241  0.34191971     0.08600
O2373       O  0.77156861  0.14445924  0.27964580    -0.40200
O2374       O  0.78212048  0.15752815  0.31791537    -0.39400
O2375       O  0.69836684  0.21330170  0.30698286    -0.39400
O2376       O  0.68015527  0.18690461  0.27532699    -0.37100
O2377       O  0.66297271  0.16162781  0.39355951    -0.38000
O2378       O  0.63308918  0.16283219  0.36970404    -0.34100
O2379       O  0.68125223  0.08653030  0.30222961    -0.35500
O2380       O  0.66155557  0.09983466  0.27603633    -0.39800
C2381       C  0.44966113  0.96099850  0.50966047    -0.13500
C2382       C  0.47673547  0.97676041  0.51601830     0.16900
C2383       C  0.48382018  0.97968100  0.54138762     0.03100
C2384       C  0.46411365  0.96684420  0.55954895    -0.12000
C2385       C  0.43716765  0.95052674  0.55312849    -0.03100
C2386       C  0.43000530  0.94780015  0.52780935     0.02400
C2387       C  0.49691991  0.99164844  0.49625617     0.09200
N2388       N  0.51109925  0.99472488  0.54900844     0.65600
H2389       H  0.47014596  0.96889814  0.57882856     0.18500
N2390       N  0.40272703  0.93254954  0.52025298     0.76100
H2391       H  0.44357199  0.95933672  0.49043910     0.10000
C2392       C  0.49945746  0.97895742  0.47473262     0.03700
C2393       C  0.51798657  0.99408492  0.45623458    -0.05000
C2394       C  0.53438695  0.02188638  0.45864429    -0.23400
C2395       C  0.53142042  0.03456388  0.47997705     0.13000
C2396       C  0.51290343  0.01947505  0.49833501    -0.12500
N2397       N  0.48382069  0.95065706  0.47158894     0.64600
H2398       H  0.51982943  0.98389731  0.44004494     0.12500
N2399       N  0.54593983  0.06297491  0.48271282     0.61300
H2400       H  0.51044599  0.02981829  0.51407780     0.08600
O2401       O  0.39412316  0.90936247  0.51149282    -0.40200
O2402       O  0.38897302  0.94399868  0.51784058    -0.39400
O2403       O  0.51931340  0.01710512  0.55943423    -0.39400
O2404       O  0.52486121  0.98320183  0.55054113    -0.37100
O2405       O  0.53646944  0.07678010  0.47373651    -0.38000
O2406       O  0.56479531  0.07346969  0.49818298    -0.34100
O2407       O  0.46486725  0.94121592  0.45616863    -0.35500
O2408       O  0.49249046  0.93587424  0.47983817    -0.39800
C2409       C  0.76255266  0.83265596  0.49783528    -0.13500
C2410       C  0.77854821  0.82665378  0.48264554     0.16900
C2411       C  0.78723543  0.83979231  0.45970767     0.03100
C2412       C  0.77965801  0.85860840  0.45239288    -0.12000
C2413       C  0.76334064  0.86448416  0.46758980    -0.03100
C2414       C  0.75493153  0.85123356  0.49070757     0.02400
C2415       C  0.78588871  0.80695459  0.49216583     0.09200
N2416       N  0.80315003  0.83381858  0.44343921     0.65600
H2417       H  0.78617065  0.86827648  0.43453868     0.18500
N2418       N  0.73902937  0.85667895  0.50755821     0.76100
H2419       H  0.75600627  0.82285870  0.51565636     0.10000
C2420       C  0.80908966  0.81558051  0.50660032     0.03700
C2421       C  0.81144750  0.79760812  0.52244290    -0.05000
C2422       C  0.79116036  0.77083143  0.52398450    -0.23400
C2423       C  0.76893705  0.76161192  0.50798478     0.13000
C2424       C  0.76641226  0.77975822  0.49237301    -0.12500
N2425       N  0.82937916  0.84304066  0.50693158     0.64600
H2426       H  0.82883011  0.80490717  0.53439137     0.12500
N2427       N  0.74741728  0.73473301  0.50937501     0.61300
H2428       H  0.74818160  0.77299158  0.48175846     0.08600
O2429       O  0.75035182  0.87386732  0.52443640    -0.40200
O2430       O  0.71429735  0.84049285  0.50903750    -0.39400
O2431       O  0.79200168  0.81742957  0.42593817    -0.39400
O2432       O  0.82809287  0.84916362  0.44293700    -0.37100
O2433       O  0.72872786  0.72901757  0.52458613    -0.38000
O2434       O  0.74426268  0.71846397  0.49223865    -0.34100
O2435       O  0.82939697  0.85820458  0.52387281    -0.35500
O2436       O  0.84992592  0.85055685  0.49371895    -0.39800
C2437       C  0.70649844  0.00202062  0.41072285    -0.13500
C2438       C  0.68682623  0.99970301  0.42754880     0.16900
C2439       C  0.67923182  0.98108434  0.44684484     0.03100
C2440       C  0.69093922  0.96497193  0.44892732    -0.12000
C2441       C  0.71008508  0.96639426  0.43179650    -0.03100
C2442       C  0.71826884  0.98563961  0.41273044     0.02400
C2443       C  0.67120553  0.01339378  0.42283265     0.09200
N2444       N  0.65813511  0.97686593  0.46341250     0.65600
H2445       H  0.68425169  0.95061540  0.46393262     0.18500
N2446       N  0.73741173  0.98798919  0.39465767     0.76100
H2447       H  0.71207506  0.01599156  0.39546245     0.10000
C2448       C  0.67475917  0.03570914  0.43671347     0.03700
C2449       C  0.65703595  0.04566791  0.43359209    -0.05000
C2450       C  0.63564676  0.03376692  0.41671230    -0.23400
C2451       C  0.63271777  0.01171630  0.40241057     0.13000
C2452       C  0.65033023  0.00181686  0.40571745    -0.12500
N2453       N  0.69648135  0.04870685  0.45371142     0.64600
H2454       H  0.66009619  0.06284538  0.44447365     0.12500
N2455       N  0.61211711  0.99909068  0.38426879     0.61300
H2456       H  0.64736417  0.98450890  0.39507483     0.08600
O2457       O  0.72944881  0.97592904  0.37421596    -0.40200
O2458       O  0.76140030  0.00621756  0.39690850    -0.39400
O2459       O  0.63437232  0.96001900  0.45781580    -0.39400
O2460       O  0.66362368  0.98535482  0.48538852    -0.37100
O2461       O  0.61717340  0.00621619  0.36193939    -0.38000
O2462       O  0.59141863  0.97737022  0.38945495    -0.34100
O2463       O  0.71789788  0.06863917  0.44654467    -0.35500
O2464       O  0.69228175  0.04434793  0.47659923    -0.39800
C2465       C  0.82637833  0.01141520  0.50638629    -0.13500
C2466       C  0.81560802  0.01472400  0.52848134     0.16900
C2467       C  0.78908607  0.99544973  0.53465025     0.03100
C2468       C  0.77409150  0.97385245  0.51859912    -0.12000
C2469       C  0.78474169  0.97089941  0.49616646    -0.03100
C2470       C  0.81155999  0.98995503  0.49038003     0.02400
C2471       C  0.83126646  0.04007540  0.54281351     0.09200
N2472       N  0.77702137  0.99764696  0.55700128     0.65600
H2473       H  0.75351926  0.95953262  0.52355844     0.18500
N2474       N  0.82390383  0.98846157  0.46792299     0.76100
H2475       H  0.84644775  0.02653406  0.50075737     0.10000
C2476       C  0.85815780  0.04946648  0.54986149     0.03700
C2477       C  0.87371159  0.07554338  0.55913014    -0.05000
C2478       C  0.86322305  0.09286673  0.56121045    -0.23400
C2479       C  0.83602962  0.08309909  0.55532461     0.13000
C2480       C  0.82045450  0.05702325  0.54622244    -0.12500
N2481       N  0.87026746  0.03311327  0.54692503     0.64600
H2482       H  0.89460689  0.08275924  0.56345516     0.12500
N2483       N  0.82399214  0.09953543  0.55820870     0.61300
H2484       H  0.80005273  0.05051871  0.54049848     0.08600
O2485       O  0.82402959  0.00182066  0.44938057    -0.40200
O2486       O  0.83919880  0.97857841  0.46824814    -0.39400
O2487       O  0.75920407  0.00434050  0.55592702    -0.39400
O2488       O  0.77942001  0.98697111  0.57648367    -0.37100
O2489       O  0.82070085  0.11065140  0.53947544    -0.38000
O2490       O  0.81146188  0.09795766  0.57787760    -0.34100
O2491       O  0.88741016  0.03855813  0.53010363    -0.35500
O2492       O  0.86876199  0.01787003  0.56433853    -0.39800
C2493       C  0.68703004  0.84173260  0.35236527    -0.13500
C2494       C  0.65930381  0.82635878  0.35515941     0.16900
C2495       C  0.64762095  0.82881631  0.37733946     0.03100
C2496       C  0.66371820  0.84656965  0.39600135    -0.12000
C2497       C  0.69151530  0.86224128  0.39305809    -0.03100
C2498       C  0.70310842  0.85948729  0.37085237     0.02400
C2499       C  0.64350999  0.80645707  0.33553812     0.09200
N2500       N  0.61937818  0.81394096  0.38093783     0.65600
H2501       H  0.65430016  0.84838199  0.41274036     0.18500
N2502       N  0.73134499  0.87369547  0.36707818     0.76100
H2503       H  0.69648793  0.83939113  0.33589194     0.10000
C2504       C  0.64507063  0.81381901  0.31038643     0.03700
C2505       C  0.63192440  0.79417793  0.29216438    -0.05000
C2506       C  0.61664800  0.76707033  0.29842151    -0.23400
C2507       C  0.61514666  0.75970512  0.32354950     0.13000
C2508       C  0.62870073  0.77929644  0.34171023    -0.12500
N2509       N  0.65909209  0.84125159  0.30313346     0.64600
H2510       H  0.63290507  0.80032574  0.27303993     0.12500
N2511       N  0.60127523  0.73230475  0.33081716     0.61300
H2512       H  0.62815201  0.77311585  0.36075497     0.08600
O2513       O  0.74146033  0.89368613  0.35289923    -0.40200
O2514       O  0.74507509  0.86310828  0.37350605    -0.39400
O2515       O  0.60966873  0.79432594  0.39556200    -0.39400
O2516       O  0.60507852  0.82363550  0.37379250    -0.37100
O2517       O  0.61451145  0.72061632  0.33503132    -0.38000
O2518       O  0.57774660  0.72231742  0.33897391    -0.34100
O2519       O  0.68090042  0.85015216  0.29161349    -0.35500
O2520       O  0.64699619  0.85452624  0.30316905    -0.39800
loop_ 
_geom_bond_atom_site_label_1 
_geom_bond_atom_site_label_2 
_geom_bond_distance 
_geom_bond_site_symmetry_2 
_ccdc_geom_bond_type 
O1            V9   1.927       .  S
O1           C11   1.272       .  A
O2            V9   1.931       .  S
O2           C12   1.272       .  A
O3            V9   1.888       .  S
O3           C13   1.260       .  A
O4            V9   1.892       .  S
O4           C14   1.261       .  A
O5           V10   1.920       .  S
O5           C14   1.271       .  A
O6           V10   1.919       .  S
O6           C13   1.271       .  A
O7           V10   1.875       .  S
O7           C12   1.260       .  A
O8           V10   1.881       .  S
O8           C11   1.259       .  A
V9           V10   2.081       .  T
C11        C2413   1.492       .  S
C12        C2441   1.493       .  S
C13        C2469   1.494       .  S
C14        C2497   1.493       .  S
O15          V23   1.909       .  S
O15          C25   1.266       .  A
O16          V23   1.915       .  S
O16          C26   1.270       .  A
O17          V23   1.895       .  S
O17          C27   1.263       .  A
O18          V23   1.898       .  S
O18          C28   1.264       .  A
O19          V24   1.918       .  S
O19          C28   1.270       .  A
O20          V24   1.911       .  S
O20          C27   1.268       .  A
O21          V24   1.890       .  S
O21          C26   1.262       .  A
O22          V24   1.886       .  S
O22          C25   1.260       .  A
V23          V24   2.084       .  T
C25        C2338   1.468       .  S
C26        C2450   1.493       .  S
C27        C2366   1.486       .  S
C28        C2394   1.494       .  S
O29          V37   1.922       .  S
O29          C39   1.269       .  A
O30          V37   1.920       .  S
O30          C40   1.269       .  A
O31          V37   1.888       .  S
O31          C41   1.262       .  A
O32          V37   1.887       .  S
O32          C42   1.261       .  A
O33          V38   1.909       .  S
O33          C42   1.268       .  A
O34          V38   1.917       .  S
O34          C41   1.269       .  A
O35          V38   1.885       .  S
O35          C40   1.259       .  A
O36          V38   1.882       .  S
O36          C39   1.262       .  A
V37          V38   2.083       .  T
C39        C2217   1.490       .  S
C40        C2273   1.475   1_455  S
C41        C2254   1.488       .  S
C42        C2310   1.484       .  S
O43          V51   1.915       .  S
O43          C53   1.269       .  A
O44          V51   1.915       .  S
O44          C54   1.269       .  A
O45          V51   1.887       .  S
O45          C55   1.260       .  A
O46          V51   1.882       .  S
O46          C56   1.260       .  A
O47          V52   1.924       .  S
O47          C56   1.271       .  A
O48          V52   1.920       .  S
O48          C55   1.270       .  A
O49          V52   1.896       .  S
O49          C54   1.263       .  A
O50          V52   1.888       .  S
O50          C53   1.261       .  A
V51          V52   2.082       .  T
C53        C2133   1.486       .  S
C54        C2282   1.488       .  S
C55        C2189   1.480       .  S
C56        C2170   1.490       .  S
O57          V65   1.926       .  S
O57          C67   1.272       .  A
O58          V65   1.929       .  S
O58          C68   1.271       .  A
O59          V65   1.891       .  S
O59          C69   1.262       .  A
O60          V65   1.893       .  S
O60          C70   1.262       .  A
O61          V66   1.918       .  S
O61          C70   1.270       .  A
O62          V66   1.919       .  S
O62          C69   1.269       .  A
O63          V66   1.887       .  S
O63          C68   1.263       .  A
O64          V66   1.888       .  S
O64          C67   1.260       .  A
V65          V66   2.082       .  T
C67        C2021   1.495       .  S
C68        C2058   1.497       .  S
C69        C2114   1.482       .  S
C70        C2086   1.494       .  S
O71          V79   1.923       .  S
O71          C81   1.270       .  A
O72          V79   1.924       .  S
O72          C82   1.271       .  A
O73          V79   1.901       .  S
O73          C83   1.263       .  A
O74          V79   1.893       .  S
O74          C84   1.263       .  A
O75          V80   1.914       .  S
O75          C84   1.268       .  A
O76          V80   1.913       .  S
O76          C83   1.269       .  A
O77          V80   1.890       .  S
O77          C82   1.263       .  A
O78          V80   1.888       .  S
O78          C81   1.262       .  A
V79          V80   2.083       .  T
C81        C1965   1.493       .  S
C82        C2049   1.498       .  S
C83        C2385   1.490       .  S
C84        C2002   1.488       .  S
O85          V93   1.923       .  S
O85          C95   1.271       .  A
O86          V93   1.925       .  S
O86          C96   1.272       .  A
O87          V93   1.885       .  S
O87          C97   1.259       .  A
O88          V93   1.882       .  S
O88          C98   1.261       .  A
O89          V94   1.929       .  S
O89          C98   1.272       .  A
O90          V94   1.924       .  S
O90          C97   1.272       .  A
O91          V94   1.890       .  S
O91          C96   1.261       .  A
O92          V94   1.888       .  S
O92          C95   1.261       .  A
V93          V94   2.083       .  T
C95        C1890   1.493       .  S
C96        C1918   1.493       .  S
C97        C1937   1.490       .  S
C98        C2105   1.494       .  S
O99         V107   1.929       .  S
O99         C109   1.271       .  A
O100        V107   1.927       .  S
O100        C110   1.271       .  A
O101        V107   1.894       .  S
O101        C111   1.265       .  A
O102        V107   1.897       .  S
O102        C112   1.263       .  A
O103        V108   1.908       .  S
O103        C112   1.267       .  A
O104        V108   1.912       .  S
O104        C111   1.267       .  A
O105        V108   1.887       .  S
O105        C110   1.263       .  A
O106        V108   1.887       .  S
O106        C109   1.263       .  A
V107        V108   2.082       .  T
C109       C1834   1.495       .  S
C110       C1909   1.496       .  S
C111       C1853   1.490       .  S
C112       C2245   1.485       .  S
O113        V121   1.921       .  S
O113        C123   1.269       .  A
O114        V121   1.919       .  S
O114        C124   1.269       .  A
O115        V121   1.901       .  S
O115        C125   1.264       .  A
O116        V121   1.901       .  S
O116        C126   1.265       .  A
O117        V122   1.909       .  S
O117        C126   1.268       .  A
O118        V122   1.913       .  S
O118        C125   1.266       .  A
O119        V122   1.881       .  S
O119        C124   1.262       .  A
O120        V122   1.874       .  S
O120        C123   1.260       .  A
V121        V122   2.082       .  T
C123       C1713   1.480       .  S
C124       C1769   1.489       .  S
C125       C1741   1.480       .  S
C126       C1806   1.495       .  S
O127        V135   1.919       .  S
O127        C137   1.269       .  A
O128        V135   1.919       .  S
O128        C138   1.268       .  A
O129        V135   1.898       .  S
O129        C139   1.263       .  A
O130        V135   1.895       .  S
O130        C140   1.265       .  A
O131        V136   1.916       .  S
O131        C140   1.268       .  A
O132        V136   1.911       .  S
O132        C139   1.268       .  A
O133        V136   1.883       .  S
O133        C138   1.261       .  A
O134        V136   1.879       .  S
O134        C137   1.261       .  A
V135        V136   2.084       .  T
C137       C1657   1.487       .  S
C138       C1778   1.479       .  S
C139       C2506   1.485       .  S
C140       C1685   1.491       .  S
O141        V149   1.921       .  S
O141        C151   1.269       .  A
O142        V149   1.920       .  S
O142        C152   1.269       .  A
O143        V149   1.885       .  S
O143        C153   1.262       .  A
O144        V149   1.888       .  S
O144        C154   1.263       .  A
O145        V150   1.917       .  S
O145        C154   1.268       .  A
O146        V150   1.916       .  S
O146        C153   1.268       .  A
O147        V150   1.888       .  S
O147        C152   1.263       .  A
O148        V150   1.888       .  S
O148        C151   1.263       .  A
V149        V150   2.083       .  T
C151       C1582   1.491       .  S
C152       C1601   1.494       .  S
C153       C1629   1.489       .  S
C154       C2198   1.489       .  S
O155        V163   1.912       .  S
O155        C165   1.268       .  A
O156        V163   1.912       .  S
O156        C166   1.269       .  A
O157        V163   1.886       .  S
O157        C167   1.260       .  A
O158        V163   1.884       .  S
O158        C168   1.261       .  A
O159        V164   1.931       .  S
O159        C168   1.272       .  A
O160        V164   1.929       .  S
O160        C167   1.273       .  A
O161        V164   1.893       .  S
O161        C166   1.262       .  A
O162        V164   1.894       .  S
O162        C165   1.262       .  A
V163        V164   2.082       .  T
C165       C1526   1.487       .  S
C166       C1610   1.488       .  S
C167       C1545   1.496       .  S
C168       C1750   1.498       .  S
O169        V177   1.916       .  S
O169        C179   1.268       .  A
O170        V177   1.921       .  S
O170        C180   1.269       .  A
O171        V177   1.887       .  S
O171        C181   1.263       .  A
O172        V177   1.891       .  S
O172        C182   1.261       .  A
O173        V178   1.915       .  S
O173        C182   1.269       .  A
O174        V178   1.917       .  S
O174        C181   1.267       .  A
O175        V178   1.891       .  S
O175        C180   1.263       .  A
O176        V178   1.892       .  S
O176        C179   1.264       .  A
V177        V178   2.084       .  T
C179       C1433   1.494       .  S
C180       C1498   1.486       .  S
C181       C1666   1.485       .  S
C182       C1461   1.485       .  S
O183        V191   1.914       .  S
O183        C193   1.266       .  A
O184        V191   1.911       .  S
O184        C194   1.268       .  A
O185        V191   1.887       .  S
O185        C195   1.264       .  A
O186        V191   1.892       .  S
O186        C196   1.263       .  A
O187        V192   1.912       .  S
O187        C196   1.268       .  A
O188        V192   1.919       .  S
O188        C195   1.268       .  A
O189        V192   1.900       .  S
O189        C194   1.264       .  A
O190        V192   1.888       .  S
O190        C193   1.264       .  A
V191        V192   2.083       .  T
C193       C2301   1.483       .  S
C194       C1489   1.487       .  S
C195       C1405   1.491   1_545  S
C196       C1377   1.481       .  S
O197        V205   1.918       .  S
O197        C207   1.269       .  A
O198        V205   1.922       .  S
O198        C208   1.271       .  A
O199        V205   1.889       .  S
O199        C209   1.260       .  A
O200        V205   1.883       .  S
O200        C210   1.262       .  A
O201        V206   1.927       .  S
O201        C210   1.270       .  A
O202        V206   1.918       .  S
O202        C209   1.271       .  A
O203        V206   1.889       .  S
O203        C208   1.261       .  A
O204        V206   1.886       .  S
O204        C207   1.261       .  A
V205        V206   2.083       .  T
C207       C2357   1.484       .  S
C208       C1321   1.496       .  S
C209       C1386   1.489       .  S
C210       C1349   1.494       .  S
O211        V219   1.918       .  S
O211        C221   1.270       .  A
O212        V219   1.918       .  S
O212        C222   1.269       .  A
O213        V219   1.894       .  S
O213        C223   1.262       .  A
O214        V219   1.894       .  S
O214        C224   1.262       .  A
O215        V220   1.913       .  S
O215        C224   1.269       .  A
O216        V220   1.918       .  S
O216        C223   1.270       .  A
O217        V220   1.892       .  S
O217        C222   1.262       .  A
O218        V220   1.890       .  S
O218        C221   1.261       .  A
V219        V220   2.084       .  T
C221       C1274   1.492       .  S
C222       C1330   1.483       .  S
C223       C1302   1.491       .  S
C224       C1573   1.491       .  S
O225        V233   1.926       .  S
O225        C235   1.270       .  A
O226        V233   1.929       .  S
O226        C236   1.272       .  A
O227        V233   1.895       .  S
O227        C237   1.262       .  A
O228        V233   1.898       .  S
O228        C238   1.263       .  A
O229        V234   1.916       .  S
O229        C238   1.269       .  A
O230        V234   1.920       .  S
O230        C237   1.270       .  A
O231        V234   1.890       .  S
O231        C236   1.260       .  A
O232        V234   1.884       .  S
O232        C235   1.262       .  A
V233        V234   2.083       .  T
C235       C1209   1.490       .  S
C236       C1237   1.492       .  S
C237       C2030   1.493       .  S
C238       C1293   1.490       .  S
O239        V247   1.924       .  S
O239        C249   1.270       .  A
O240        V247   1.930       .  S
O240        C250   1.271       .  A
O241        V247   1.885       .  S
O241        C251   1.260       .  A
O242        V247   1.879       .  S
O242        C252   1.261       .  A
O243        V248   1.918       .  S
O243        C252   1.268       .  A
O244        V248   1.915       .  S
O244        C251   1.269       .  A
O245        V248   1.894       .  S
O245        C250   1.264       .  A
O246        V248   1.890       .  S
O246        C249   1.263       .  A
V247        V248   2.084       .  T
C249       C1797   1.493       .  S
C250       C1246   1.498       .  S
C251       C1190   1.482       .  S
C252       C1153   1.485       .  S
O253        V261   1.919       .  S
O253        C263   1.268       .  A
O254        V261   1.919       .  S
O254        C264   1.269       .  A
O255        V261   1.895       .  S
O255        C265   1.262       .  A
O256        V261   1.890       .  S
O256        C266   1.263       .  A
O257        V262   1.912       .  S
O257        C266   1.266       .  A
O258        V262   1.908       .  S
O258        C265   1.266       .  A
O259        V262   1.888       .  S
O259        C264   1.263       .  A
O260        V262   1.886       .  S
O260        C263   1.262       .  A
V261        V262   2.085       .  T
C263       C1862   1.483       .  S
C264       C1106   1.491       .  S
C265       C1162   1.471       .  S
C266       C1125   1.479       .  S
O267        V275   1.915       .  S
O267        C277   1.267       .  A
O268        V275   1.923       .  S
O268        C278   1.270       .  A
O269        V275   1.906       .  S
O269        C279   1.265       .  A
O270        V275   1.901       .  S
O270        C280   1.265       .  A
O271        V276   1.913       .  S
O271        C280   1.266       .  A
O272        V276   1.908       .  S
O272        C279   1.267       .  A
O273        V276   1.884       .  S
O273        C278   1.262       .  A
O274        V276   1.884       .  S
O274        C277   1.263       .  A
V275        V276   2.085       .  T
C277       C1050   1.485       .  S
C278       C1097   1.487       .  S
C279       C1078   1.493       .  S
C280       C2422   1.482       .  S
O281        V289   1.929       .  S
O281        C291   1.271       .  A
O282        V289   1.932       .  S
O282        C292   1.273       .  A
O283        V289   1.890       .  S
O283        C293   1.261       .  A
O284        V289   1.895       .  S
O284        C294   1.264       .  A
O285        V290   1.920       .  S
O285        C294   1.269       .  A
O286        V290   1.917       .  S
O286        C293   1.270       .  A
O287        V290   1.891       .  S
O287        C292   1.263       .  A
O288        V290   1.884       .  S
O288        C291   1.261       .  A
V289        V290   2.083       .  T
C291        C985   1.487       .  S
C292       C1013   1.500       .  S
C293       C2142   1.488       .  S
C294       C1069   1.493       .  S
O295        V303   1.926       .  S
O295        C305   1.270       .  A
O296        V303   1.928       .  S
O296        C306   1.273       .  A
O297        V303   1.887       .  S
O297        C307   1.262       .  A
O298        V303   1.890       .  S
O298        C308   1.261       .  A
O299        V304   1.916       .  S
O299        C308   1.269       .  A
O300        V304   1.921       .  S
O300        C307   1.269       .  A
O301        V304   1.888       .  S
O301        C306   1.261       .  A
O302        V304   1.888       .  S
O302        C305   1.263       .  A
V303        V304   2.083       .  T
C305       C1993   1.496       .  S
C306       C1022   1.499       .  S
C307        C929   1.489       .  S
C308        C957   1.484       .  S
O309        V317   1.924       .  S
O309        C319   1.270       .  A
O310        V317   1.921       .  S
O310        C320   1.272       .  A
O311        V317   1.896       .  S
O311        C321   1.262       .  A
O312        V317   1.889       .  S
O312        C322   1.263       .  A
O313        V318   1.925       .  S
O313        C322   1.270       .  A
O314        V318   1.920       .  S
O314        C321   1.271       .  A
O315        V318   1.893       .  S
O315        C320   1.261       .  A
O316        V318   1.887       .  S
O316        C319   1.262       .  A
V317        V318   2.083       .  T
C319        C873   1.488       .  S
C320        C910   1.496       .  S
C321       C1470   1.495       .  S
C322       C1881   1.491       .  S
O323        V331   1.919       .  S
O323        C333   1.270       .  A
O324        V331   1.917       .  S
O324        C334   1.270       .  A
O325        V331   1.892       .  S
O325        C335   1.261       .  A
O326        V331   1.888       .  S
O326        C336   1.262       .  A
O327        V332   1.924       .  S
O327        C336   1.270       .  A
O328        V332   1.917       .  S
O328        C335   1.270       .  A
O329        V332   1.899       .  S
O329        C334   1.263       .  A
O330        V332   1.901       .  S
O330        C333   1.264       .  A
V331        V332   2.084       .  T
C333       C1554   1.493       .  S
C334        C901   1.496       .  S
C335        C966   1.484       .  S
C336        C845   1.488   1_556  S
O337        V345   1.920       .  S
O337        C347   1.269       .  A
O338        V345   1.919       .  S
O338        C348   1.269       .  A
O339        V345   1.891       .  S
O339        C349   1.264       .  A
O340        V345   1.895       .  S
O340        C350   1.262       .  A
O341        V346   1.915       .  S
O341        C350   1.270       .  A
O342        V346   1.921       .  S
O342        C349   1.269       .  A
O343        V346   1.897       .  S
O343        C348   1.263       .  A
O344        V346   1.894       .  S
O344        C347   1.262       .  A
V345        V346   2.083       .  T
C347       C1946   1.490       .  S
C348        C789   1.491       .  S
C349        C817   1.491       .  S
C350        C994   1.494       .  S
O351        V359   1.912       .  S
O351        C361   1.266       .  A
O352        V359   1.909       .  S
O352        C362   1.268       .  A
O353        V359   1.896       .  S
O353        C363   1.262       .  A
O354        V359   1.886       .  S
O354        C364   1.263       .  A
O355        V360   1.921       .  S
O355        C364   1.269       .  A
O356        V360   1.917       .  S
O356        C363   1.268       .  A
O357        V360   1.905       .  S
O357        C362   1.265       .  A
O358        V360   1.893       .  S
O358        C361   1.264       .  A
V359        V360   2.085       .  T
C361       C1414   1.481       .  S
C362        C798   1.495       .  S
C363        C761   1.478       .  S
C364       C1517   1.491       .  S
O365        V373   1.928       .  S
O365        C375   1.271       .  A
O366        V373   1.929       .  S
O366        C376   1.271       .  A
O367        V373   1.889       .  S
O367        C377   1.264       .  A
O368        V373   1.890       .  S
O368        C378   1.261       .  A
O369        V374   1.915       .  S
O369        C378   1.270       .  A
O370        V374   1.921       .  S
O370        C377   1.269       .  A
O371        V374   1.882       .  S
O371        C376   1.261       .  A
O372        V374   1.881       .  S
O372        C375   1.261       .  A
V373        V374   2.083       .  T
C375       C2161   1.490       .  S
C376        C733   1.490       .  S
C377        C882   1.495       .  S
C378        C705   1.491       .  S
O379        V387   1.914       .  S
O379        C389   1.268       .  A
O380        V387   1.915       .  S
O380        C390   1.270       .  A
O381        V387   1.882       .  S
O381        C391   1.261       .  A
O382        V387   1.884       .  S
O382        C392   1.261       .  A
O383        V388   1.929       .  S
O383        C392   1.272       .  A
O384        V388   1.926       .  S
O384        C391   1.271       .  A
O385        V388   1.894       .  S
O385        C390   1.263       .  A
O386        V388   1.893       .  S
O386        C389   1.263       .  A
V387        V388   2.081       .  T
C389       C1134   1.484       .  S
C390        C742   1.495       .  S
C391       C1974   1.487       .  S
C392        C770   1.496       .  S
O393        V401   1.920       .  S
O393        C403   1.270       .  A
O394        V401   1.925       .  S
O394        C404   1.270       .  A
O395        V401   1.896       .  S
O395        C405   1.262       .  A
O396        V401   1.891       .  S
O396        C406   1.262       .  A
O397        V402   1.912       .  S
O397        C406   1.268       .  A
O398        V402   1.906       .  S
O398        C405   1.267       .  A
O399        V402   1.888       .  S
O399        C404   1.263       .  A
O400        V402   1.890       .  S
O400        C403   1.261       .  A
V401        V402   2.085       .  T
C403       C2478   1.484       .  S
C404        C677   1.495       .  S
C405        C714   1.478       .  S
C406       C1218   1.483       .  S
O407        V415   1.931       .  S
O407        C417   1.272       .  A
O408        V415   1.933       .  S
O408        C418   1.272       .  A
O409        V415   1.892       .  S
O409        C419   1.263       .  A
O410        V415   1.891       .  S
O410        C420   1.262       .  A
O411        V416   1.915       .  S
O411        C420   1.269       .  A
O412        V416   1.915       .  S
O412        C419   1.268       .  A
O413        V416   1.878       .  S
O413        C418   1.260       .  A
O414        V416   1.874       .  S
O414        C417   1.260       .  A
V415        V416   2.082       .  T
C417        C938   1.492       .  S
C418        C686   1.496       .  S
C419        C649   1.485       .  S
C420       C1825   1.489       .  S
O421        V429   1.911       .  S
O421        C431   1.268       .  A
O422        V429   1.916       .  S
O422        C432   1.269       .  A
O423        V429   1.887       .  S
O423        C433   1.263       .  A
O424        V429   1.890       .  S
O424        C434   1.262       .  A
O425        V430   1.911       .  S
O425        C434   1.267       .  A
O426        V430   1.916       .  S
O426        C433   1.267       .  A
O427        V430   1.897       .  S
O427        C432   1.264       .  A
O428        V430   1.901       .  S
O428        C431   1.265       .  A
V429        V430   2.085       .  T
C431       C1358   1.493       .  S
C432        C630   1.494       .  S
C433       C1722   1.484       .  S
C434        C658   1.477       .  S
O435        V443   1.919       .  S
O435        C445   1.269       .  A
O436        V443   1.923       .  S
O436        C446   1.270       .  A
O437        V443   1.892       .  S
O437        C447   1.265       .  A
O438        V443   1.899       .  S
O438        C448   1.263       .  A
O439        V444   1.905       .  S
O439        C448   1.267       .  A
O440        V444   1.910       .  S
O440        C447   1.266       .  A
O441        V444   1.894       .  S
O441        C446   1.264       .  A
O442        V444   1.893       .  S
O442        C445   1.264       .  A
V443        V444   2.084       .  T
C445       C2077   1.492       .  S
C446        C621   1.495   1_455  S
C447       C1041   1.486   1_455  S
C448        C593   1.491       .  S
O449        V457   1.913       .  S
O449        C459   1.269       .  A
O450        V457   1.914       .  S
O450        C460   1.267       .  A
O451        V457   1.895       .  S
O451        C461   1.262       .  A
O452        V457   1.890       .  S
O452        C462   1.262       .  A
O453        V458   1.911       .  S
O453        C462   1.266       .  A
O454        V458   1.905       .  S
O454        C461   1.267       .  A
O455        V458   1.876       .  S
O455        C460   1.261       .  A
O456        V458   1.886       .  S
O456        C459   1.261       .  A
V457        V458   2.084       .  T
C459       C1181   1.481       .  S
C460        C565   1.481       .  S
C461        C546   1.479       .  S
C462       C2329   1.473       .  S
O463        V471   1.921       .  S
O463        C473   1.270       .  A
O464        V471   1.916       .  S
O464        C474   1.268       .  A
O465        V471   1.900       .  S
O465        C475   1.263       .  A
O466        V471   1.895       .  S
O466        C476   1.262       .  A
O467        V472   1.910       .  S
O467        C476   1.268       .  A
O468        V472   1.908       .  S
O468        C475   1.266       .  A
O469        V472   1.876       .  S
O469        C474   1.260       .  A
O470        V472   1.880       .  S
O470        C473   1.260       .  A
V471        V472   2.086       .  T
C473       C1638   1.479       .  S
C474        C574   1.480       .  S
C475        C602   1.476       .  S
C476       C1442   1.486       .  S
O477        V485   1.912       .  S
O477        C487   1.267       .  A
O478        V485   1.915       .  S
O478        C488   1.269       .  A
O479        V485   1.884       .  S
O479        C489   1.262       .  A
O480        V485   1.892       .  S
O480        C490   1.262       .  A
O481        V486   1.911       .  S
O481        C490   1.269       .  A
O482        V486   1.913       .  S
O482        C489   1.267       .  A
O483        V486   1.896       .  S
O483        C488   1.263       .  A
O484        V486   1.893       .  S
O484        C487   1.263       .  A
V485        V486   2.084       .  T
C487        C854   1.477       .  S
C488        C518   1.485       .  S
C489       C2226   1.481       .  S
C490        C537   1.483       .  S
O491        V499   1.923       .  S
O491        C501   1.271       .  A
O492        V499   1.934       .  S
O492        C502   1.272       .  A
O493        V499   1.888       .  S
O493        C503   1.261       .  A
O494        V499   1.892       .  S
O494        C504   1.262       .  A
O495        V500   1.919       .  S
O495        C504   1.269       .  A
O496        V500   1.917       .  S
O496        C503   1.269       .  A
O497        V500   1.877       .  S
O497        C502   1.261       .  A
O498        V500   1.883       .  S
O498        C501   1.259       .  A
V499        V500   2.084       .  T
C501       C1694   1.492       .  S
C502        C509   1.496       .  S
C503       C1265   1.483       .  S
C504        C826   1.486       .  S
C505        C506   1.408       .  A
C505        C510   1.413       .  A
C505        H515   1.085       .  S
C506        C511   1.492       .  S
C506        C507   1.407       .  A
C507        C508   1.393       .  A
C507        N512   1.430       .  S
C508        C509   1.408       .  A
C508        H513   1.085       .  S
C509        C510   1.415       .  A
C510        N514   1.428       .  S
C511        C516   1.411       .  A
C511        C520   1.404       .  A
N512        O527   1.262       .  A
N512        O528   1.262       .  A
N514        O525   1.262       .  A
N514        O526   1.262       .  A
C516        C517   1.406       .  A
C516        N521   1.428       .  S
C517        C518   1.406       .  A
C517        H522   1.086       .  S
C518        C519   1.412       .  A
C519        C520   1.400       .  A
C519        N523   1.429       .  S
C520        H524   1.086       .  S
N521        O531   1.262       .  A
N521        O532   1.261       .  A
N523        O529   1.262       .  A
N523        O530   1.262       .  A
C533        C534   1.401       .  A
C533        C538   1.399       .  A
C533        H543   1.085       .  S
C534        C539   1.486       .  S
C534        C535   1.412       .  A
C535        C536   1.402       .  A
C535        N540   1.428       .  S
C536        C537   1.403       .  A
C536        H541   1.085       .  S
C537        C538   1.415       .  A
C538        N542   1.429       .  S
C539        C544   1.412       .  A
C539        C548   1.403       .  A
N540        O555   1.262       .  A
N540        O556   1.262       .  A
N542        O553   1.262       .  A
N542        O554   1.262       .  A
C544        C545   1.400       .  A
C544        N549   1.429       .  S
C545        C546   1.402       .  A
C545        H550   1.085       .  S
C546        C547   1.413       .  A
C547        C548   1.401       .  A
C547        N551   1.429       .  S
C548        H552   1.085       .  S
N549        O559   1.262       .  A
N549        O560   1.262       .  A
N551        O557   1.262       .  A
N551        O558   1.262       .  A
C561        C562   1.404   1_545  A
C561        C566   1.404       .  A
C561        H571   1.085       .  S
C562        C567   1.476       .  S
C562        C563   1.405   1_565  A
C563        C564   1.390       .  A
C563        N568   1.429   1_545  S
C564        C565   1.406       .  A
C564        H569   1.085       .  S
C565        C566   1.413       .  A
C566        N570   1.428       .  S
C567        C572   1.405       .  A
C567        C576   1.404       .  A
N568        O583   1.262       .  A
N568        O584   1.262       .  A
N570        O581   1.262       .  A
N570        O582   1.262       .  A
C572        C573   1.393       .  A
C572        N577   1.430       .  S
C573        C574   1.407       .  A
C573        H578   1.085       .  S
C574        C575   1.411       .  A
C575        C576   1.402       .  A
C575        N579   1.428       .  S
C576        H580   1.085       .  S
N577        O587   1.262       .  A
N577        O588   1.262       .  A
N579        O585   1.262       .  A
N579        O586   1.262       .  A
C589        C590   1.401       .  A
C589        C594   1.402       .  A
C589        H599   1.085       .  S
C590        C595   1.485       .  S
C590        C591   1.408       .  A
C591        C592   1.401       .  A
C591        N596   1.428       .  S
C592        C593   1.407       .  A
C592        H597   1.084       .  S
C593        C594   1.418       .  A
C594        N598   1.429       .  S
C595        C600   1.410       .  A
C595        C604   1.404       .  A
N596        O611   1.262       .  A
N596        O612   1.262       .  A
N598        O609   1.262       .  A
N598        O610   1.262       .  A
C600        C601   1.401       .  A
C600        N605   1.428       .  S
C601        C602   1.400       .  A
C601        H606   1.085       .  S
C602        C603   1.411       .  A
C603        C604   1.404       .  A
C603        N607   1.429       .  S
C604        H608   1.085       .  S
N605        O615   1.262       .  A
N605        O616   1.262       .  A
N607        O613   1.262       .  A
N607        O614   1.262       .  A
C617        C618   1.404       .  A
C617        C622   1.409       .  A
C617        H627   1.084       .  S
C618        C623   1.486       .  S
C618        C619   1.406       .  A
C619        C620   1.400       .  A
C619        N624   1.429       .  S
C620        C621   1.408       .  A
C620        H625   1.084   1_655  S
C621        C622   1.415       .  A
C622        N626   1.428       .  S
C623        C628   1.409       .  A
C623        C632   1.398       .  A
N624        O639   1.262       .  A
N624        O640   1.262       .  A
N626        O637   1.262       .  A
N626        O638   1.262       .  A
C628        C629   1.409       .  A
C628        N633   1.428       .  S
C629        C630   1.409       .  A
C629        H634   1.084       .  S
C630        C631   1.417       .  A
C631        C632   1.400       .  A
C631        N635   1.429       .  S
C632        H636   1.085       .  S
N633        O643   1.262       .  A
N633        O644   1.262       .  A
N635        O641   1.262       .  A
N635        O642   1.261       .  A
C645        C646   1.403       .  A
C645        C650   1.404       .  A
C645        H655   1.085       .  S
C646        C651   1.480       .  S
C646        C647   1.406   1_655  A
C647        C648   1.399       .  A
C647        N652   1.429       .  S
C648        C649   1.406       .  A
C648        H653   1.085       .  S
C649        C650   1.413   1_455  A
C650        N654   1.428       .  S
C651        C656   1.406       .  A
C651        C660   1.404       .  A
N652        O667   1.262       .  A
N652        O668   1.262   1_455  A
N654        O665   1.262       .  A
N654        O666   1.262   1_655  A
C656        C657   1.398       .  A
C656        N661   1.428       .  S
C657        C658   1.404       .  A
C657        H662   1.085       .  S
C658        C659   1.410       .  A
C659        C660   1.403       .  A
C659        N663   1.427       .  S
C660        H664   1.085   1_655  S
N661        O671   1.262       .  A
N661        O672   1.262       .  A
N663        O669   1.262       .  A
N663        O670   1.262   1_655  A
C673        C674   1.404       .  A
C673        C678   1.409       .  A
C673        H683   1.085   1_655  S
C674        C679   1.485   1_655  S
C674        C675   1.405       .  A
C675        C676   1.398       .  A
C675        N680   1.429       .  S
C676        C677   1.409       .  A
C676        H681   1.085       .  S
C677        C678   1.416       .  A
C678        N682   1.428       .  S
C679        C684   1.404   1_455  A
C679        C688   1.405       .  A
N680        O695   1.262       .  A
N680        O696   1.262       .  A
N682        O693   1.262   1_655  A
N682        O694   1.262       .  A
C684        C685   1.396   1_655  A
C684        N689   1.429       .  S
C685        C686   1.410       .  A
C685        H690   1.084   1_455  S
C686        C687   1.416       .  A
C687        C688   1.411       .  A
C687        N691   1.428       .  S
C688        H692   1.084       .  S
N689        O699   1.262       .  A
N689        O700   1.262       .  A
N691        O697   1.262       .  A
N691        O698   1.262       .  A
C701        C702   1.402       .  A
C701        C706   1.400       .  A
C701        H711   1.085       .  S
C702        C707   1.493       .  S
C702        C703   1.414       .  A
C703        C704   1.403       .  A
C703        N708   1.429       .  S
C704        C705   1.404       .  A
C704        H709   1.085       .  S
C705        C706   1.419       .  A
C706        N710   1.429       .  S
C707        C712   1.415       .  A
C707        C716   1.405       .  A
N708        O723   1.262       .  A
N708        O724   1.261       .  A
N710        O721   1.262       .  A
N710        O722   1.262       .  A
C712        C713   1.400       .  A
C712        N717   1.429       .  S
C713        C714   1.401       .  A
C713        H718   1.085       .  S
C714        C715   1.411       .  A
C715        C716   1.402       .  A
C715        N719   1.429       .  S
C716        H720   1.084       .  S
N717        O727   1.262       .  A
N717        O728   1.262       .  A
N719        O725   1.262       .  A
N719        O726   1.262       .  A
C729        C730   1.406   1_545  A
C729        C734   1.409       .  A
C729        H739   1.085       .  S
C730        C735   1.486       .  S
C730        C731   1.407   1_565  A
C731        C732   1.398       .  A
C731        N736   1.429   1_545  S
C732        C733   1.407       .  A
C732        H737   1.085       .  S
C733        C734   1.412       .  A
C734        N738   1.428       .  S
C735        C740   1.410       .  A
C735        C744   1.399       .  A
N736        O751   1.262       .  A
N736        O752   1.262       .  A
N738        O749   1.262       .  A
N738        O750   1.262       .  A
C740        C741   1.406       .  A
C740        N745   1.428       .  S
C741        C742   1.408       .  A
C741        H746   1.084       .  S
C742        C743   1.419       .  A
C743        C744   1.400       .  A
C743        N747   1.429       .  S
C744        H748   1.085       .  S
N745        O755   1.262       .  A
N745        O756   1.262       .  A
N747        O753   1.262       .  A
N747        O754   1.262       .  A
C757        C758   1.407       .  A
C757        C762   1.404       .  A
C757        H767   1.085       .  S
C758        C763   1.498       .  S
C758        C759   1.415       .  A
C759        C760   1.403       .  A
C759        N764   1.428       .  S
C760        C761   1.401       .  A
C760        H765   1.086       .  S
C761        C762   1.409       .  A
C762        N766   1.429       .  S
C763        C768   1.411       .  A
C763        C772   1.408       .  A
N764        O779   1.262       .  A
N764        O780   1.262       .  A
N766        O777   1.262       .  A
N766        O778   1.262       .  A
C768        C769   1.399       .  A
C768        N773   1.430       .  S
C769        C770   1.409       .  A
C769        H774   1.085       .  S
C770        C771   1.413       .  A
C771        C772   1.409       .  A
C771        N775   1.428       .  S
C772        H776   1.085       .  S
N773        O783   1.262       .  A
N773        O784   1.262       .  A
N775        O781   1.262       .  A
N775        O782   1.262       .  A
C785        C786   1.400       .  A
C785        C790   1.402       .  A
C785        H795   1.086       .  S
C786        C791   1.488       .  S
C786        C787   1.411       .  A
C787        C788   1.407       .  A
C787        N792   1.428       .  S
C788        C789   1.406       .  A
C788        H793   1.085       .  S
C789        C790   1.416       .  A
C790        N794   1.429       .  S
C791        C796   1.408       .  A
C791        C800   1.402       .  A
N792        O807   1.262       .  A
N792        O808   1.262       .  A
N794        O805   1.262       .  A
N794        O806   1.262       .  A
C796        C797   1.404       .  A
C796        N801   1.428       .  S
C797        C798   1.407       .  A
C797        H802   1.085       .  S
C798        C799   1.417       .  A
C799        C800   1.405       .  A
C799        N803   1.429       .  S
C800        H804   1.086       .  S
N801        O811   1.262       .  A
N801        O812   1.262       .  A
N803        O809   1.262       .  A
N803        O810   1.262       .  A
C813        C814   1.405       .  A
C813        C818   1.407       .  A
C813        H823   1.085       .  S
C814        C819   1.492   1_556  S
C814        C815   1.409   1_556  A
C815        C816   1.399   1_554  A
C815        N820   1.429       .  S
C816        C817   1.407       .  A
C816        H821   1.085       .  S
C817        C818   1.415       .  A
C818        N822   1.428       .  S
C819        C824   1.410       .  A
C819        C828   1.407       .  A
N820        O835   1.262       .  A
N820        O836   1.262       .  A
N822        O833   1.262       .  A
N822        O834   1.261       .  A
C824        C825   1.400       .  A
C824        N829   1.429       .  S
C825        C826   1.406       .  A
C825        H830   1.085       .  S
C826        C827   1.411       .  A
C827        C828   1.405       .  A
C827        N831   1.428       .  S
C828        H832   1.085       .  S
N829        O839   1.262   1_554  A
N829        O840   1.262       .  A
N831        O837   1.262       .  A
N831        O838   1.262       .  A
C841        C842   1.405   1_565  A
C841        C846   1.406       .  A
C841        H851   1.085   1_565  S
C842        C847   1.494       .  S
C842        C843   1.413   1_545  A
C843        C844   1.399   1_554  A
C843        N848   1.430   1_565  S
C844        C845   1.404   1_556  A
C844        H849   1.086       .  S
C845        C846   1.412       .  A
C846        N850   1.426       .  S
C847        C852   1.416       .  A
C847        C856   1.404       .  A
N848        O863   1.262   1_554  A
N848        O864   1.261       .  A
N850        O861   1.262       .  A
N850        O862   1.261       .  A
C852        C853   1.407       .  A
C852        N857   1.428       .  S
C853        C854   1.402       .  A
C853        H858   1.086       .  S
C854        C855   1.409       .  A
C855        C856   1.397       .  A
C855        N859   1.430       .  S
C856        H860   1.085       .  S
N857        O867   1.262       .  A
N857        O868   1.262       .  A
N859        O865   1.262       .  A
N859        O866   1.262       .  A
C869        C870   1.408       .  A
C869        C874   1.408       .  A
C869        H879   1.085       .  S
C870        C875   1.492       .  S
C870        C871   1.409       .  A
C871        C872   1.399       .  A
C871        N876   1.429       .  S
C872        C873   1.406       .  A
C872        H877   1.085       .  S
C873        C874   1.412       .  A
C874        N878   1.428       .  S
C875        C880   1.408       .  A
C875        C884   1.407       .  A
N876        O891   1.262       .  A
N876        O892   1.262       .  A
N878        O889   1.262       .  A
N878        O890   1.262       .  A
C880        C881   1.397       .  A
C880        N885   1.429       .  S
C881        C882   1.407       .  A
C881        H886   1.085       .  S
C882        C883   1.416       .  A
C883        C884   1.410       .  A
C883        N887   1.428       .  S
C884        H888   1.085       .  S
N885        O895   1.262       .  A
N885        O896   1.262       .  A
N887        O893   1.262       .  A
N887        O894   1.262       .  A
C897        C898   1.400       .  A
C897        C902   1.402       .  A
C897        H907   1.085       .  S
C898        C903   1.489   1_565  S
C898        C899   1.411       .  A
C899        C900   1.406       .  A
C899        N904   1.428   1_565  S
C900        C901   1.407       .  A
C900        H905   1.085       .  S
C901        C902   1.420       .  A
C902        N906   1.429       .  S
C903        C908   1.411       .  A
C903        C912   1.399       .  A
N904        O919   1.262       .  A
N904        O920   1.262       .  A
N906        O917   1.262       .  A
N906        O918   1.261   1_556  A
C908        C909   1.406       .  A
C908        N913   1.428       .  S
C909        C910   1.406       .  A
C909        H914   1.084       .  S
C910        C911   1.421       .  A
C911        C912   1.402       .  A
C911        N915   1.430   1_545  S
C912        H916   1.085   1_545  S
N913        O923   1.262       .  A
N913        O924   1.262       .  A
N915        O921   1.262       .  A
N915        O922   1.261   1_565  A
C925        C926   1.403       .  A
C925        C930   1.405       .  A
C925        H935   1.085       .  S
C926        C931   1.484       .  S
C926        C927   1.406       .  A
C927        C928   1.398       .  A
C927        N932   1.429       .  S
C928        C929   1.407       .  A
C928        H933   1.085       .  S
C929        C930   1.414       .  A
C930        N934   1.427       .  S
C931        C936   1.405       .  A
C931        C940   1.406       .  A
N932        O947   1.262       .  A
N932        O948   1.262       .  A
N934        O945   1.261       .  A
N934        O946   1.262       .  A
C936        C937   1.394       .  A
C936        N941   1.430       .  S
C937        C938   1.409       .  A
C937        H942   1.085       .  S
C938        C939   1.414       .  A
C939        C940   1.409       .  A
C939        N943   1.427       .  S
C940        H944   1.085       .  S
N941        O951   1.262       .  A
N941        O952   1.262       .  A
N943        O949   1.262       .  A
N943        O950   1.262       .  A
C953        C954   1.400       .  A
C953        C958   1.401       .  A
C953        H963   1.085       .  S
C954        C959   1.484       .  S
C954        C955   1.410       .  A
C955        C956   1.404       .  A
C955        N960   1.428       .  S
C956        C957   1.403       .  A
C956        H961   1.085       .  S
C957        C958   1.416       .  A
C958        N962   1.430       .  S
C959        C964   1.410       .  A
C959        C968   1.400       .  A
N960        O975   1.262       .  A
N960        O976   1.262       .  A
N962        O973   1.262       .  A
N962        O974   1.262       .  A
C964        C965   1.403       .  A
C964        N969   1.428       .  S
C965        C966   1.404       .  A
C965        H970   1.085       .  S
C966        C967   1.415       .  A
C967        C968   1.402       .  A
C967        N971   1.429       .  S
C968        H972   1.085       .  S
N969        O979   1.262       .  A
N969        O980   1.262       .  A
N971        O977   1.262       .  A
N971        O978   1.262       .  A
C981        C982   1.405       .  A
C981        C986   1.409       .  A
C981        H991   1.085       .  S
C982        C987   1.487       .  S
C982        C983   1.409       .  A
C983        C984   1.398       .  A
C983        N988   1.429       .  S
C984        C985   1.405       .  A
C984        H989   1.085       .  S
C985        C986   1.411       .  A
C986        N990   1.426       .  S
C987        C992   1.409       .  A
C987        C996   1.400       .  A
N988       O1003   1.262       .  A
N988       O1004   1.262       .  A
N990       O1001   1.262       .  A
N990       O1002   1.261       .  A
C992        C993   1.404       .  A
C992        N997   1.428       .  S
C993        C994   1.407       .  A
C993        H998   1.085       .  S
C994        C995   1.420       .  A
C995        C996   1.401       .  A
C995        N999   1.429       .  S
C996       H1000   1.085       .  S
N997       O1007   1.262       .  A
N997       O1008   1.261       .  A
N999       O1005   1.262       .  A
N999       O1006   1.262       .  A
C1009      C1010   1.405       .  A
C1009      C1014   1.411       .  A
C1009      H1019   1.085       .  S
C1010      C1015   1.491   1_655  S
C1010      C1011   1.408       .  A
C1011      C1012   1.401       .  A
C1011      N1016   1.429       .  S
C1012      C1013   1.409       .  A
C1012      H1017   1.085       .  S
C1013      C1014   1.416       .  A
C1014      N1018   1.427       .  S
C1015      C1020   1.412       .  A
C1015      C1024   1.397       .  A
N1016      O1031   1.262       .  A
N1016      O1032   1.262       .  A
N1018      O1029   1.262       .  A
N1018      O1030   1.262       .  A
C1020      C1021   1.411       .  A
C1020      N1025   1.427       .  S
C1021      C1022   1.408       .  A
C1021      H1026   1.085       .  S
C1022      C1023   1.421       .  A
C1023      C1024   1.399       .  A
C1023      N1027   1.429       .  S
C1024      H1028   1.086   1_455  S
N1025      O1035   1.262       .  A
N1025      O1036   1.262       .  A
N1027      O1033   1.262       .  A
N1027      O1034   1.261       .  A
C1037      C1038   1.403       .  A
C1037      C1042   1.404       .  A
C1037      H1047   1.086       .  S
C1038      C1043   1.481       .  S
C1038      C1039   1.407       .  A
C1039      C1040   1.396       .  A
C1039      N1044   1.429       .  S
C1040      C1041   1.405       .  A
C1040      H1045   1.085       .  S
C1041      C1042   1.416       .  A
C1042      N1046   1.429   1_655  S
C1043      C1048   1.406       .  A
C1043      C1052   1.404       .  A
N1044      O1059   1.262       .  A
N1044      O1060   1.262       .  A
N1046      O1057   1.262   1_455  A
N1046      O1058   1.262       .  A
C1048      C1049   1.394       .  A
C1048      N1053   1.429       .  S
C1049      C1050   1.406       .  A
C1049      H1054   1.085       .  S
C1050      C1051   1.414       .  A
C1051      C1052   1.406       .  A
C1051      N1055   1.428       .  S
C1052      H1056   1.085       .  S
N1053      O1063   1.262       .  A
N1053      O1064   1.262       .  A
N1055      O1061   1.262       .  A
N1055      O1062   1.262       .  A
C1065      C1066   1.407       .  A
C1065      C1070   1.406       .  A
C1065      H1075   1.085       .  S
C1066      C1071   1.497       .  S
C1066      C1067   1.413       .  A
C1067      C1068   1.403       .  A
C1067      N1072   1.430       .  S
C1068      C1069   1.406       .  A
C1068      H1073   1.085       .  S
C1069      C1070   1.414       .  A
C1070      N1074   1.428       .  S
C1071      C1076   1.416       .  A
C1071      C1080   1.404       .  A
N1072      O1087   1.262       .  A
N1072      O1088   1.262       .  A
N1074      O1085   1.262       .  A
N1074      O1086   1.262       .  A
C1076      C1077   1.406       .  A
C1076      N1081   1.430       .  S
C1077      C1078   1.405       .  A
C1077      H1082   1.085       .  S
C1078      C1079   1.415       .  A
C1079      C1080   1.404       .  A
C1079      N1083   1.429       .  S
C1080      H1084   1.086       .  S
N1081      O1091   1.262       .  A
N1081      O1092   1.262       .  A
N1083      O1089   1.262       .  A
N1083      O1090   1.262       .  A
C1093      C1094   1.409       .  A
C1093      C1098   1.408       .  A
C1093      H1103   1.084       .  S
C1094      C1099   1.494       .  S
C1094      C1095   1.411       .  A
C1095      C1096   1.397       .  A
C1095      N1100   1.429       .  S
C1096      C1097   1.405       .  A
C1096      H1101   1.085       .  S
C1097      C1098   1.411       .  A
C1098      N1102   1.428       .  S
C1099      C1104   1.411       .  A
C1099      C1108   1.407       .  A
N1100      O1115   1.262       .  A
N1100      O1116   1.262       .  A
N1102      O1113   1.262       .  A
N1102      O1114   1.262       .  A
C1104      C1105   1.398       .  A
C1104      N1109   1.429       .  S
C1105      C1106   1.407       .  A
C1105      H1110   1.085       .  S
C1106      C1107   1.414       .  A
C1107      C1108   1.406       .  A
C1107      N1111   1.428       .  S
C1108      H1112   1.084       .  S
N1109      O1119   1.262       .  A
N1109      O1120   1.262       .  A
N1111      O1117   1.262       .  A
N1111      O1118   1.262       .  A
C1121      C1122   1.404       .  A
C1121      C1126   1.405       .  A
C1121      H1131   1.085       .  S
C1122      C1127   1.482       .  S
C1122      C1123   1.408       .  A
C1123      C1124   1.397       .  A
C1123      N1128   1.429       .  S
C1124      C1125   1.403       .  A
C1124      H1129   1.085       .  S
C1125      C1126   1.413       .  A
C1126      N1130   1.429       .  S
C1127      C1132   1.409       .  A
C1127      C1136   1.399       .  A
N1128      O1143   1.262       .  A
N1128      O1144   1.262       .  A
N1130      O1141   1.262       .  A
N1130      O1142   1.262       .  A
C1132      C1133   1.407       .  A
C1132      N1137   1.428       .  S
C1133      C1134   1.407       .  A
C1133      H1138   1.085       .  S
C1134      C1135   1.413       .  A
C1135      C1136   1.396       .  A
C1135      N1139   1.429       .  S
C1136      H1140   1.086       .  S
N1137      O1147   1.262       .  A
N1137      O1148   1.262       .  A
N1139      O1145   1.262       .  A
N1139      O1146   1.262       .  A
C1149      C1150   1.408       .  A
C1149      C1154   1.406       .  A
C1149      H1159   1.084       .  S
C1150      C1155   1.490       .  S
C1150      C1151   1.410       .  A
C1151      C1152   1.393       .  A
C1151      N1156   1.429       .  S
C1152      C1153   1.405       .  A
C1152      H1157   1.085       .  S
C1153      C1154   1.413       .  A
C1154      N1158   1.429       .  S
C1155      C1160   1.414       .  A
C1155      C1164   1.405       .  A
N1156      O1171   1.262       .  A
N1156      O1172   1.262       .  A
N1158      O1169   1.262       .  A
N1158      O1170   1.262       .  A
C1160      C1161   1.402       .  A
C1160      N1165   1.429       .  S
C1161      C1162   1.400       .  A
C1161      H1166   1.085       .  S
C1162      C1163   1.407       .  A
C1163      C1164   1.399       .  A
C1163      N1167   1.429       .  S
C1164      H1168   1.084       .  S
N1165      O1175   1.262       .  A
N1165      O1176   1.262       .  A
N1167      O1173   1.262       .  A
N1167      O1174   1.262       .  A
C1177      C1178   1.401       .  A
C1177      C1182   1.396       .  A
C1177      H1187   1.085       .  S
C1178      C1183   1.487       .  S
C1178      C1179   1.414       .  A
C1179      C1180   1.404       .  A
C1179      N1184   1.429       .  S
C1180      C1181   1.403       .  A
C1180      H1185   1.085       .  S
C1181      C1182   1.414       .  A
C1182      N1186   1.429       .  S
C1183      C1188   1.414       .  A
C1183      C1192   1.400       .  A
N1184      O1199   1.262       .  A
N1184      O1200   1.261       .  A
N1186      O1197   1.262       .  A
N1186      O1198   1.262       .  A
C1188      C1189   1.403       .  A
C1188      N1193   1.429       .  S
C1189      C1190   1.402       .  A
C1189      H1194   1.085       .  S
C1190      C1191   1.415       .  A
C1191      C1192   1.397       .  A
C1191      N1195   1.429       .  S
C1192      H1196   1.085       .  S
N1193      O1203   1.262       .  A
N1193      O1204   1.262       .  A
N1195      O1201   1.262       .  A
N1195      O1202   1.261       .  A
C1205      C1206   1.403       .  A
C1205      C1210   1.410       .  A
C1205      H1215   1.085       .  S
C1206      C1211   1.480       .  S
C1206      C1207   1.404       .  A
C1207      C1208   1.393       .  A
C1207      N1212   1.429       .  S
C1208      C1209   1.407       .  A
C1208      H1213   1.085       .  S
C1209      C1210   1.416       .  A
C1210      N1214   1.427       .  S
C1211      C1216   1.408   1_455  A
C1211      C1220   1.399       .  A
N1212      O1227   1.262       .  A
N1212      O1228   1.262       .  A
N1214      O1225   1.261       .  A
N1214      O1226   1.262       .  A
C1216      C1217   1.404       .  A
C1216      N1221   1.428   1_655  S
C1217      C1218   1.405       .  A
C1217      H1222   1.085       .  S
C1218      C1219   1.414       .  A
C1219      C1220   1.398   1_655  A
C1219      N1223   1.429       .  S
C1220      H1224   1.086       .  S
N1221      O1231   1.262   1_455  A
N1221      O1232   1.262       .  A
N1223      O1229   1.262       .  A
N1223      O1230   1.262       .  A
C1233      C1234   1.402       .  A
C1233      C1238   1.402       .  A
C1233      H1243   1.085       .  S
C1234      C1239   1.494       .  S
C1234      C1235   1.412       .  A
C1235      C1236   1.411       .  A
C1235      N1240   1.427       .  S
C1236      C1237   1.406       .  A
C1236      H1241   1.085       .  S
C1237      C1238   1.416       .  A
C1238      N1242   1.429       .  S
C1239      C1244   1.408       .  A
C1239      C1248   1.407       .  A
N1240      O1255   1.262       .  A
N1240      O1256   1.261       .  A
N1242      O1253   1.262       .  A
N1242      O1254   1.262       .  A
C1244      C1245   1.400       .  A
C1244      N1249   1.429       .  S
C1245      C1246   1.407       .  A
C1245      H1250   1.085       .  S
C1246      C1247   1.416       .  A
C1247      C1248   1.414       .  A
C1247      N1251   1.428       .  S
C1248      H1252   1.085       .  S
N1249      O1259   1.262       .  A
N1249      O1260   1.262       .  A
N1251      O1257   1.262       .  A
N1251      O1258   1.262       .  A
C1261      C1262   1.402       .  A
C1261      C1266   1.401       .  A
C1261      H1271   1.085       .  S
C1262      C1267   1.490       .  S
C1262      C1263   1.415       .  A
C1263      C1264   1.403       .  A
C1263      N1268   1.429       .  S
C1264      C1265   1.401       .  A
C1264      H1269   1.085       .  S
C1265      C1266   1.415       .  A
C1266      N1270   1.430       .  S
C1267      C1272   1.413       .  A
C1267      C1276   1.400       .  A
N1268      O1283   1.262       .  A
N1268      O1284   1.262       .  A
N1270      O1281   1.262       .  A
N1270      O1282   1.262       .  A
C1272      C1273   1.407       .  A
C1272      N1277   1.429       .  S
C1273      C1274   1.407       .  A
C1273      H1278   1.085       .  S
C1274      C1275   1.418       .  A
C1275      C1276   1.398       .  A
C1275      N1279   1.429       .  S
C1276      H1280   1.085       .  S
N1277      O1287   1.262       .  A
N1277      O1288   1.262       .  A
N1279      O1285   1.262       .  A
N1279      O1286   1.262       .  A
C1289      C1290   1.402       .  A
C1289      C1294   1.402       .  A
C1289      H1299   1.084       .  S
C1290      C1295   1.497       .  S
C1290      C1291   1.416       .  A
C1291      C1292   1.405       .  A
C1291      N1296   1.429       .  S
C1292      C1293   1.403       .  A
C1292      H1297   1.085       .  S
C1293      C1294   1.415       .  A
C1294      N1298   1.427       .  S
C1295      C1300   1.416       .  A
C1295      C1304   1.403       .  A
N1296      O1311   1.262       .  A
N1296      O1312   1.262       .  A
N1298      O1309   1.261       .  A
N1298      O1310   1.262       .  A
C1300      C1301   1.406       .  A
C1300      N1305   1.429       .  S
C1301      C1302   1.405       .  A
C1301      H1306   1.085       .  S
C1302      C1303   1.415       .  A
C1303      C1304   1.401       .  A
C1303      N1307   1.429       .  S
C1304      H1308   1.085       .  S
N1305      O1315   1.262       .  A
N1305      O1316   1.262       .  A
N1307      O1313   1.262       .  A
N1307      O1314   1.262       .  A
C1317      C1318   1.401       .  A
C1317      C1322   1.400       .  A
C1317      H1327   1.085       .  S
C1318      C1323   1.498   1_655  S
C1318      C1319   1.416       .  A
C1319      C1320   1.407       .  A
C1319      N1324   1.429       .  S
C1320      C1321   1.405       .  A
C1320      H1325   1.085       .  S
C1321      C1322   1.419       .  A
C1322      N1326   1.429       .  S
C1323      C1328   1.419       .  A
C1323      C1332   1.404       .  A
N1324      O1339   1.262       .  A
N1324      O1340   1.262       .  A
N1326      O1337   1.262       .  A
N1326      O1338   1.262       .  A
C1328      C1329   1.405       .  A
C1328      N1333   1.429       .  S
C1329      C1330   1.401       .  A
C1329      H1334   1.086       .  S
C1330      C1331   1.413       .  A
C1331      C1332   1.401       .  A
C1331      N1335   1.429       .  S
C1332      H1336   1.085   1_455  S
N1333      O1343   1.262       .  A
N1333      O1344   1.261       .  A
N1335      O1341   1.262       .  A
N1335      O1342   1.262       .  A
C1345      C1346   1.406       .  A
C1345      C1350   1.410       .  A
C1345      H1355   1.085       .  S
C1346      C1351   1.485       .  S
C1346      C1347   1.406       .  A
C1347      C1348   1.396       .  A
C1347      N1352   1.429       .  S
C1348      C1349   1.408       .  A
C1348      H1353   1.085       .  S
C1349      C1350   1.415       .  A
C1350      N1354   1.428       .  S
C1351      C1356   1.410       .  A
C1351      C1360   1.399       .  A
N1352      O1367   1.262       .  A
N1352      O1368   1.262       .  A
N1354      O1365   1.262       .  A
N1354      O1366   1.262       .  A
C1356      C1357   1.406       .  A
C1356      N1361   1.429       .  S
C1357      C1358   1.408       .  A
C1357      H1362   1.084       .  S
C1358      C1359   1.417       .  A
C1359      C1360   1.400       .  A
C1359      N1363   1.428       .  S
C1360      H1364   1.085       .  S
N1361      O1371   1.262       .  A
N1361      O1372   1.261       .  A
N1363      O1369   1.262       .  A
N1363      O1370   1.262       .  A
C1373      C1374   1.405       .  A
C1373      C1378   1.402       .  A
C1373      H1383   1.085       .  S
C1374      C1379   1.487       .  S
C1374      C1375   1.411       .  A
C1375      C1376   1.401       .  A
C1375      N1380   1.429       .  S
C1376      C1377   1.404       .  A
C1376      H1381   1.085       .  S
C1377      C1378   1.411       .  A
C1378      N1382   1.429       .  S
C1379      C1384   1.412       .  A
C1379      C1388   1.399       .  A
N1380      O1395   1.262       .  A
N1380      O1396   1.262       .  A
N1382      O1393   1.262       .  A
N1382      O1394   1.262       .  A
C1384      C1385   1.405       .  A
C1384      N1389   1.429       .  S
C1385      C1386   1.404       .  A
C1385      H1390   1.084       .  S
C1386      C1387   1.419       .  A
C1387      C1388   1.399       .  A
C1387      N1391   1.429       .  S
C1388      H1392   1.085       .  S
N1389      O1399   1.262       .  A
N1389      O1400   1.262       .  A
N1391      O1397   1.262       .  A
N1391      O1398   1.262       .  A
C1401      C1402   1.406       .  A
C1401      C1406   1.407       .  A
C1401      H1411   1.084       .  S
C1402      C1407   1.491       .  S
C1402      C1403   1.411   1_556  A
C1403      C1404   1.396       .  A
C1403      N1408   1.429       .  S
C1404      C1405   1.405       .  A
C1404      H1409   1.085       .  S
C1405      C1406   1.415   1_554  A
C1406      N1410   1.428   1_565  S
C1407      C1412   1.411       .  A
C1407      C1416   1.407       .  A
N1408      O1423   1.262       .  A
N1408      O1424   1.262       .  A
N1410      O1421   1.262       .  A
N1410      O1422   1.262       .  A
C1412      C1413   1.398       .  A
C1412      N1417   1.429       .  S
C1413      C1414   1.403       .  A
C1413      H1418   1.085       .  S
C1414      C1415   1.411       .  A
C1415      C1416   1.404       .  A
C1415      N1419   1.428       .  S
C1416      H1420   1.085       .  S
N1417      O1427   1.262       .  A
N1417      O1428   1.262   1_556  A
N1419      O1425   1.262       .  A
N1419      O1426   1.262       .  A
C1429      C1430   1.402       .  A
C1429      C1434   1.406       .  A
C1429      H1439   1.085       .  S
C1430      C1435   1.482       .  S
C1430      C1431   1.407       .  A
C1431      C1432   1.398       .  A
C1431      N1436   1.430       .  S
C1432      C1433   1.408       .  A
C1432      H1437   1.084       .  S
C1433      C1434   1.417       .  A
C1434      N1438   1.428       .  S
C1435      C1440   1.409       .  A
C1435      C1444   1.398       .  A
N1436      O1451   1.262       .  A
N1436      O1452   1.262       .  A
N1438      O1449   1.262       .  A
N1438      O1450   1.262       .  A
C1440      C1441   1.403       .  A
C1440      N1445   1.429       .  S
C1441      C1442   1.406       .  A
C1441      H1446   1.085       .  S
C1442      C1443   1.416       .  A
C1443      C1444   1.400       .  A
C1443      N1447   1.428       .  S
C1444      H1448   1.085       .  S
N1445      O1455   1.262       .  A
N1445      O1456   1.262       .  A
N1447      O1453   1.261       .  A
N1447      O1454   1.262       .  A
C1457      C1458   1.402       .  A
C1457      C1462   1.400       .  A
C1457      H1467   1.085       .  S
C1458      C1463   1.494       .  S
C1458      C1459   1.415       .  A
C1459      C1460   1.405       .  A
C1459      N1464   1.428   1_565  S
C1460      C1461   1.403       .  A
C1460      H1465   1.085       .  S
C1461      C1462   1.414       .  A
C1462      N1466   1.429       .  S
C1463      C1468   1.413   1_554  A
C1463      C1472   1.402   1_565  A
N1464      O1479   1.262       .  A
N1464      O1480   1.262       .  A
N1466      O1477   1.262       .  A
N1466      O1478   1.262       .  A
C1468      C1469   1.405       .  A
C1468      N1473   1.429       .  S
C1469      C1470   1.405   1_565  A
C1469      H1474   1.085       .  S
C1470      C1471   1.419       .  A
C1471      C1472   1.403   1_556  A
C1471      N1475   1.429       .  S
C1472      H1476   1.085       .  S
N1473      O1483   1.262       .  A
N1473      O1484   1.262       .  A
N1475      O1481   1.262   1_556  A
N1475      O1482   1.262   1_556  A
C1485      C1486   1.401       .  A
C1485      C1490   1.402   1_565  A
C1485      H1495   1.085   1_565  S
C1486      C1491   1.484       .  S
C1486      C1487   1.408       .  A
C1487      C1488   1.405       .  A
C1487      N1492   1.428       .  S
C1488      C1489   1.406   1_565  A
C1488      H1493   1.084       .  S
C1489      C1490   1.415       .  A
C1490      N1494   1.429       .  S
C1491      C1496   1.407       .  A
C1491      C1500   1.404       .  A
N1492      O1507   1.262       .  A
N1492      O1508   1.262       .  A
N1494      O1505   1.262       .  A
N1494      O1506   1.262       .  A
C1496      C1497   1.400       .  A
C1496      N1501   1.429       .  S
C1497      C1498   1.406       .  A
C1497      H1502   1.085       .  S
C1498      C1499   1.412       .  A
C1499      C1500   1.408       .  A
C1499      N1503   1.428       .  S
C1500      H1504   1.085       .  S
N1501      O1511   1.262       .  A
N1501      O1512   1.262       .  A
N1503      O1509   1.262       .  A
N1503      O1510   1.262       .  A
C1513      C1514   1.405       .  A
C1513      C1518   1.408       .  A
C1513      H1523   1.085       .  S
C1514      C1519   1.483       .  S
C1514      C1515   1.407       .  A
C1515      C1516   1.396   1_554  A
C1515      N1520   1.430   1_554  S
C1516      C1517   1.407       .  A
C1516      H1521   1.085       .  S
C1517      C1518   1.415   1_556  A
C1518      N1522   1.428       .  S
C1519      C1524   1.410       .  A
C1519      C1528   1.399       .  A
N1520      O1535   1.262       .  A
N1520      O1536   1.262       .  A
N1522      O1533   1.262       .  A
N1522      O1534   1.262       .  A
C1524      C1525   1.404       .  A
C1524      N1529   1.428       .  S
C1525      C1526   1.405       .  A
C1525      H1530   1.085       .  S
C1526      C1527   1.417       .  A
C1527      C1528   1.399       .  A
C1527      N1531   1.429       .  S
C1528      H1532   1.086       .  S
N1529      O1539   1.262       .  A
N1529      O1540   1.261       .  A
N1531      O1537   1.262       .  A
N1531      O1538   1.262       .  A
C1541      C1542   1.401   1_654  A
C1541      C1546   1.400       .  A
C1541      H1551   1.085   1_655  S
C1542      C1547   1.499       .  S
C1542      C1543   1.416   1_455  A
C1543      C1544   1.410       .  A
C1543      N1548   1.428       .  S
C1544      C1545   1.406   1_556  A
C1544      H1549   1.085       .  S
C1545      C1546   1.419       .  A
C1546      N1550   1.429       .  S
C1547      C1552   1.416       .  A
C1547      C1556   1.403       .  A
N1548      O1563   1.262   1_655  A
N1548      O1564   1.262       .  A
N1550      O1561   1.262       .  A
N1550      O1562   1.262       .  A
C1552      C1553   1.408       .  A
C1552      N1557   1.429       .  S
C1553      C1554   1.404       .  A
C1553      H1558   1.085       .  S
C1554      C1555   1.416       .  A
C1555      C1556   1.404       .  A
C1555      N1559   1.429       .  S
C1556      H1560   1.085       .  S
N1557      O1567   1.262       .  A
N1557      O1568   1.262       .  A
N1559      O1565   1.262       .  A
N1559      O1566   1.262       .  A
C1569      C1570   1.398       .  A
C1569      C1574   1.400       .  A
C1569      H1579   1.085       .  S
C1570      C1575   1.483       .  S
C1570      C1571   1.409       .  A
C1571      C1572   1.404       .  A
C1571      N1576   1.428       .  S
C1572      C1573   1.407       .  A
C1572      H1577   1.084       .  S
C1573      C1574   1.419       .  A
C1574      N1578   1.429       .  S
C1575      C1580   1.407       .  A
C1575      C1584   1.404       .  A
N1576      O1591   1.262       .  A
N1576      O1592   1.261       .  A
N1578      O1589   1.262       .  A
N1578      O1590   1.262       .  A
C1580      C1581   1.397       .  A
C1580      N1585   1.429       .  S
C1581      C1582   1.407       .  A
C1581      H1586   1.085       .  S
C1582      C1583   1.415       .  A
C1583      C1584   1.408       .  A
C1583      N1587   1.428       .  S
C1584      H1588   1.085       .  S
N1585      O1595   1.262       .  A
N1585      O1596   1.262       .  A
N1587      O1593   1.262       .  A
N1587      O1594   1.262       .  A
C1597      C1598   1.403       .  A
C1597      C1602   1.407       .  A
C1597      H1607   1.085       .  S
C1598      C1603   1.481   1_455  S
C1598      C1599   1.405       .  A
C1599      C1600   1.397       .  A
C1599      N1604   1.429   1_455  S
C1600      C1601   1.409       .  A
C1600      H1605   1.084       .  S
C1601      C1602   1.416       .  A
C1602      N1606   1.428       .  S
C1603      C1608   1.409       .  A
C1603      C1612   1.398       .  A
N1604      O1619   1.262       .  A
N1604      O1620   1.262       .  A
N1606      O1617   1.262       .  A
N1606      O1618   1.262       .  A
C1608      C1609   1.404       .  A
C1608      N1613   1.428   1_655  S
C1609      C1610   1.406       .  A
C1609      H1614   1.085       .  S
C1610      C1611   1.418       .  A
C1611      C1612   1.399       .  A
C1611      N1615   1.429       .  S
C1612      H1616   1.085       .  S
N1613      O1623   1.262       .  A
N1613      O1624   1.261       .  A
N1615      O1621   1.262       .  A
N1615      O1622   1.262       .  A
C1625      C1626   1.402       .  A
C1625      C1630   1.405       .  A
C1625      H1635   1.085       .  S
C1626      C1631   1.479       .  S
C1626      C1627   1.406       .  A
C1627      C1628   1.395       .  A
C1627      N1632   1.429       .  S
C1628      C1629   1.408       .  A
C1628      H1633   1.085       .  S
C1629      C1630   1.415       .  A
C1630      N1634   1.428       .  S
C1631      C1636   1.406       .  A
C1631      C1640   1.402       .  A
N1632      O1647   1.262       .  A
N1632      O1648   1.262       .  A
N1634      O1645   1.262       .  A
N1634      O1646   1.262       .  A
C1636      C1637   1.398       .  A
C1636      N1641   1.429       .  S
C1637      C1638   1.405       .  A
C1637      H1642   1.086       .  S
C1638      C1639   1.410       .  A
C1639      C1640   1.403       .  A
C1639      N1643   1.426       .  S
C1640      H1644   1.085       .  S
N1641      O1651   1.262       .  A
N1641      O1652   1.262       .  A
N1643      O1649   1.262       .  A
N1643      O1650   1.261       .  A
C1653      C1654   1.404       .  A
C1653      C1658   1.406       .  A
C1653      H1663   1.085       .  S
C1654      C1659   1.479       .  S
C1654      C1655   1.405       .  A
C1655      C1656   1.394       .  A
C1655      N1660   1.429       .  S
C1656      C1657   1.408       .  A
C1656      H1661   1.085       .  S
C1657      C1658   1.414       .  A
C1658      N1662   1.428       .  S
C1659      C1664   1.405       .  A
C1659      C1668   1.404       .  A
N1660      O1675   1.262       .  A
N1660      O1676   1.262       .  A
N1662      O1673   1.262       .  A
N1662      O1674   1.262       .  A
C1664      C1665   1.395       .  A
C1664      N1669   1.429       .  S
C1665      C1666   1.405       .  A
C1665      H1670   1.085       .  S
C1666      C1667   1.415       .  A
C1667      C1668   1.406       .  A
C1667      N1671   1.428       .  S
C1668      H1672   1.085       .  S
N1669      O1679   1.262       .  A
N1669      O1680   1.262       .  A
N1671      O1677   1.262       .  A
N1671      O1678   1.262       .  A
C1681      C1682   1.405       .  A
C1681      C1686   1.405       .  A
C1681      H1691   1.085       .  S
C1682      C1687   1.485       .  S
C1682      C1683   1.408       .  A
C1683      C1684   1.401       .  A
C1683      N1688   1.429       .  S
C1684      C1685   1.407       .  A
C1684      H1689   1.085       .  S
C1685      C1686   1.415       .  A
C1686      N1690   1.428       .  S
C1687      C1692   1.411       .  A
C1687      C1696   1.398       .  A
N1688      O1703   1.262       .  A
N1688      O1704   1.262       .  A
N1690      O1701   1.262       .  A
N1690      O1702   1.262       .  A
C1692      C1693   1.408       .  A
C1692      N1697   1.428       .  S
C1693      C1694   1.408       .  A
C1693      H1698   1.084       .  S
C1694      C1695   1.419       .  A
C1695      C1696   1.396       .  A
C1695      N1699   1.429       .  S
C1696      H1700   1.086       .  S
N1697      O1707   1.262       .  A
N1697      O1708   1.262       .  A
N1699      O1705   1.262       .  A
N1699      O1706   1.262       .  A
C1709      C1710   1.407       .  A
C1709      C1714   1.407       .  A
C1709      H1719   1.085       .  S
C1710      C1715   1.483       .  S
C1710      C1711   1.408       .  A
C1711      C1712   1.391       .  A
C1711      N1716   1.430       .  S
C1712      C1713   1.404       .  A
C1712      H1717   1.085       .  S
C1713      C1714   1.410       .  A
C1714      N1718   1.428       .  S
C1715      C1720   1.408       .  A
C1715      C1724   1.405       .  A
N1716      O1731   1.262       .  A
N1716      O1732   1.262       .  A
N1718      O1729   1.262       .  A
N1718      O1730   1.262       .  A
C1720      C1721   1.397       .  A
C1720      N1725   1.429       .  S
C1721      C1722   1.406       .  A
C1721      H1726   1.085       .  S
C1722      C1723   1.412       .  A
C1723      C1724   1.404       .  A
C1723      N1727   1.428       .  S
C1724      H1728   1.085       .  S
N1725      O1735   1.262       .  A
N1725      O1736   1.262       .  A
N1727      O1733   1.262       .  A
N1727      O1734   1.262       .  A
C1737      C1738   1.407       .  A
C1737      C1742   1.406       .  A
C1737      H1747   1.085       .  S
C1738      C1743   1.495       .  S
C1738      C1739   1.412       .  A
C1739      C1740   1.402       .  A
C1739      N1744   1.428       .  S
C1740      C1741   1.401       .  A
C1740      H1745   1.085       .  S
C1741      C1742   1.412       .  A
C1742      N1746   1.429       .  S
C1743      C1748   1.409       .  A
C1743      C1752   1.408       .  A
N1744      O1759   1.262       .  A
N1744      O1760   1.262       .  A
N1746      O1757   1.262       .  A
N1746      O1758   1.262       .  A
C1748      C1749   1.400       .  A
C1748      N1753   1.429       .  S
C1749      C1750   1.410       .  A
C1749      H1754   1.085       .  S
C1750      C1751   1.414       .  A
C1751      C1752   1.408       .  A
C1751      N1755   1.428       .  S
C1752      H1756   1.085       .  S
N1753      O1763   1.262       .  A
N1753      O1764   1.262       .  A
N1755      O1761   1.262       .  A
N1755      O1762   1.262       .  A
C1765      C1766   1.404       .  A
C1765      C1770   1.405       .  A
C1765      H1775   1.085       .  S
C1766      C1771   1.481       .  S
C1766      C1767   1.405       .  A
C1767      C1768   1.395       .  A
C1767      N1772   1.429       .  S
C1768      C1769   1.408       .  A
C1768      H1773   1.085       .  S
C1769      C1770   1.415       .  A
C1770      N1774   1.428       .  S
C1771      C1776   1.406       .  A
C1771      C1780   1.405       .  A
N1772      O1787   1.262       .  A
N1772      O1788   1.262       .  A
N1774      O1785   1.262       .  A
N1774      O1786   1.262       .  A
C1776      C1777   1.396       .  A
C1776      N1781   1.429       .  S
C1777      C1778   1.405       .  A
C1777      H1782   1.085       .  S
C1778      C1779   1.410       .  A
C1779      C1780   1.405       .  A
C1779      N1783   1.427       .  S
C1780      H1784   1.085       .  S
N1781      O1791   1.262       .  A
N1781      O1792   1.262       .  A
N1783      O1789   1.261       .  A
N1783      O1790   1.262       .  A
C1793      C1794   1.403       .  A
C1793      C1798   1.407       .  A
C1793      H1803   1.085       .  S
C1794      C1799   1.484       .  S
C1794      C1795   1.407       .  A
C1795      C1796   1.400       .  A
C1795      N1800   1.429       .  S
C1796      C1797   1.408       .  A
C1796      H1801   1.085       .  S
C1797      C1798   1.415       .  A
C1798      N1802   1.427       .  S
C1799      C1804   1.408       .  A
C1799      C1808   1.400       .  A
N1800      O1815   1.262       .  A
N1800      O1816   1.262       .  A
N1802      O1813   1.262       .  A
N1802      O1814   1.261       .  A
C1804      C1805   1.405       .  A
C1804      N1809   1.428       .  S
C1805      C1806   1.409       .  A
C1805      H1810   1.084       .  S
C1806      C1807   1.418       .  A
C1807      C1808   1.402       .  A
C1807      N1811   1.429       .  S
C1808      H1812   1.085       .  S
N1809      O1819   1.262       .  A
N1809      O1820   1.261       .  A
N1811      O1817   1.262       .  A
N1811      O1818   1.262       .  A
C1821      C1822   1.400       .  A
C1821      C1826   1.398       .  A
C1821      H1831   1.086       .  S
C1822      C1827   1.486       .  S
C1822      C1823   1.410       .  A
C1823      C1824   1.406       .  A
C1823      N1828   1.428       .  S
C1824      C1825   1.407       .  A
C1824      H1829   1.085       .  S
C1825      C1826   1.417       .  A
C1826      N1830   1.429       .  S
C1827      C1832   1.407       .  A
C1827      C1836   1.404       .  A
N1828      O1843   1.262       .  A
N1828      O1844   1.262       .  A
N1830      O1841   1.262       .  A
N1830      O1842   1.262       .  A
C1832      C1833   1.396       .  A
C1832      N1837   1.430       .  S
C1833      C1834   1.407       .  A
C1833      H1838   1.085       .  S
C1834      C1835   1.417       .  A
C1835      C1836   1.412       .  A
C1835      N1839   1.427       .  S
C1836      H1840   1.085       .  S
N1837      O1847   1.262       .  A
N1837      O1848   1.262       .  A
N1839      O1845   1.262       .  A
N1839      O1846   1.262       .  A
C1849      C1850   1.404       .  A
C1849      C1854   1.405       .  A
C1849      H1859   1.085       .  S
C1850      C1855   1.489       .  S
C1850      C1851   1.409       .  A
C1851      C1852   1.398       .  A
C1851      N1856   1.429       .  S
C1852      C1853   1.406       .  A
C1852      H1857   1.085       .  S
C1853      C1854   1.416       .  A
C1854      N1858   1.428       .  S
C1855      C1860   1.410       .  A
C1855      C1864   1.406       .  A
N1856      O1871   1.262       .  A
N1856      O1872   1.262       .  A
N1858      O1869   1.262       .  A
N1858      O1870   1.262       .  A
C1860      C1861   1.397       .  A
C1860      N1865   1.429       .  S
C1861      C1862   1.405       .  A
C1861      H1866   1.085       .  S
C1862      C1863   1.411       .  A
C1863      C1864   1.406       .  A
C1863      N1867   1.428       .  S
C1864      H1868   1.085       .  S
N1865      O1875   1.262       .  A
N1865      O1876   1.262       .  A
N1867      O1873   1.262       .  A
N1867      O1874   1.262       .  A
C1877      C1878   1.407       .  A
C1877      C1882   1.407       .  A
C1877      H1887   1.085       .  S
C1878      C1883   1.493       .  S
C1878      C1879   1.411       .  A
C1879      C1880   1.402       .  A
C1879      N1884   1.429       .  S
C1880      C1881   1.407       .  A
C1880      H1885   1.085       .  S
C1881      C1882   1.412       .  A
C1882      N1886   1.427       .  S
C1883      C1888   1.414       .  A
C1883      C1892   1.401       .  A
N1884      O1899   1.262       .  A
N1884      O1900   1.262       .  A
N1886      O1897   1.262       .  A
N1886      O1898   1.261       .  A
C1888      C1889   1.409       .  A
C1888      N1893   1.429       .  S
C1889      C1890   1.406       .  A
C1889      H1894   1.085       .  S
C1890      C1891   1.418       .  A
C1891      C1892   1.399       .  A
C1891      N1895   1.429       .  S
C1892      H1896   1.085       .  S
N1893      O1903   1.262       .  A
N1893      O1904   1.262       .  A
N1895      O1901   1.262       .  A
N1895      O1902   1.262       .  A
C1905      C1906   1.409       .  A
C1905      C1910   1.409       .  A
C1905      H1915   1.085       .  S
C1906      C1911   1.498       .  S
C1906      C1907   1.411       .  A
C1907      C1908   1.401       .  A
C1907      N1912   1.430       .  S
C1908      C1909   1.408       .  A
C1908      H1913   1.085       .  S
C1909      C1910   1.413       .  A
C1910      N1914   1.428       .  S
C1911      C1916   1.417       .  A
C1911      C1920   1.401       .  A
N1912      O1927   1.262       .  A
N1912      O1928   1.262       .  A
N1914      O1925   1.262       .  A
N1914      O1926   1.262       .  A
C1916      C1917   1.410       .  A
C1916      N1921   1.430       .  S
C1917      C1918   1.405       .  A
C1917      H1922   1.085       .  S
C1918      C1919   1.417       .  A
C1919      C1920   1.400       .  A
C1919      N1923   1.429       .  S
C1920      H1924   1.085       .  S
N1921      O1931   1.262       .  A
N1921      O1932   1.262       .  A
N1923      O1929   1.262       .  A
N1923      O1930   1.262       .  A
C1933      C1934   1.401       .  A
C1933      C1938   1.400       .  A
C1933      H1943   1.085       .  S
C1934      C1939   1.495       .  S
C1934      C1935   1.417       .  A
C1935      C1936   1.405       .  A
C1935      N1940   1.429       .  S
C1936      C1937   1.402       .  A
C1936      H1941   1.085       .  S
C1937      C1938   1.419       .  A
C1938      N1942   1.430       .  S
C1939      C1944   1.416       .  A
C1939      C1948   1.399       .  A
N1940      O1955   1.262       .  A
N1940      O1956   1.262       .  A
N1942      O1953   1.262       .  A
N1942      O1954   1.262       .  A
C1944      C1945   1.409       .  A
C1944      N1949   1.429       .  S
C1945      C1946   1.405       .  A
C1945      H1950   1.086       .  S
C1946      C1947   1.415       .  A
C1947      C1948   1.398       .  A
C1947      N1951   1.428       .  S
C1948      H1952   1.085       .  S
N1949      O1959   1.262       .  A
N1949      O1960   1.262       .  A
N1951      O1957   1.262       .  A
N1951      O1958   1.261       .  A
C1961      C1962   1.406       .  A
C1961      C1966   1.407       .  A
C1961      H1971   1.085       .  S
C1962      C1967   1.491       .  S
C1962      C1963   1.409       .  A
C1963      C1964   1.399       .  A
C1963      N1968   1.430       .  S
C1964      C1965   1.408       .  A
C1964      H1969   1.085       .  S
C1965      C1966   1.413       .  A
C1966      N1970   1.427       .  S
C1967      C1972   1.409       .  A
C1967      C1976   1.407       .  A
N1968      O1983   1.262       .  A
N1968      O1984   1.262       .  A
N1970      O1981   1.262       .  A
N1970      O1982   1.262       .  A
C1972      C1973   1.398       .  A
C1972      N1977   1.429       .  S
C1973      C1974   1.406       .  A
C1973      H1978   1.085       .  S
C1974      C1975   1.412       .  A
C1975      C1976   1.407       .  A
C1975      N1979   1.428       .  S
C1976      H1980   1.085       .  S
N1977      O1987   1.262       .  A
N1977      O1988   1.262       .  A
N1979      O1985   1.262       .  A
N1979      O1986   1.262       .  A
C1989      C1990   1.405       .  A
C1989      C1994   1.408       .  A
C1989      H1999   1.085       .  S
C1990      C1995   1.487       .  S
C1990      C1991   1.408       .  A
C1991      C1992   1.398       .  A
C1991      N1996   1.430       .  S
C1992      C1993   1.409       .  A
C1992      H1997   1.085       .  S
C1993      C1994   1.415       .  A
C1994      N1998   1.427       .  S
C1995      C2000   1.412       .  A
C1995      C2004   1.400       .  A
N1996      O2011   1.262       .  A
N1996      O2012   1.262       .  A
N1998      O2009   1.262       .  A
N1998      O2010   1.262       .  A
C2000      C2001   1.406       .  A
C2000      N2005   1.429       .  S
C2001      C2002   1.406       .  A
C2001      H2006   1.085       .  S
C2002      C2003   1.415       .  A
C2003      C2004   1.399       .  A
C2003      N2007   1.429       .  S
C2004      H2008   1.085       .  S
N2005      O2015   1.262       .  A
N2005      O2016   1.262       .  A
N2007      O2013   1.262       .  A
N2007      O2014   1.262       .  A
C2017      C2018   1.399       .  A
C2017      C2022   1.399       .  A
C2017      H2027   1.087       .  S
C2018      C2023   1.491       .  S
C2018      C2019   1.413       .  A
C2019      C2020   1.408       .  A
C2019      N2024   1.428       .  S
C2020      C2021   1.406       .  A
C2020      H2025   1.086       .  S
C2021      C2022   1.421       .  A
C2022      N2026   1.430       .  S
C2023      C2028   1.413       .  A
C2023      C2032   1.400       .  A
N2024      O2039   1.262       .  A
N2024      O2040   1.262       .  A
N2026      O2037   1.261       .  A
N2026      O2038   1.262       .  A
C2028      C2029   1.407       .  A
C2028      N2033   1.428       .  S
C2029      C2030   1.405       .  A
C2029      H2034   1.086       .  S
C2030      C2031   1.418       .  A
C2031      C2032   1.401       .  A
C2031      N2035   1.429       .  S
C2032      H2036   1.087       .  S
N2033      O2043   1.262       .  A
N2033      O2044   1.262       .  A
N2035      O2041   1.262       .  A
N2035      O2042   1.262       .  A
C2045      C2046   1.405       .  A
C2045      C2050   1.409       .  A
C2045      H2055   1.085       .  S
C2046      C2051   1.489       .  S
C2046      C2047   1.406       .  A
C2047      C2048   1.400       .  A
C2047      N2052   1.429       .  S
C2048      C2049   1.410       .  A
C2048      H2053   1.085       .  S
C2049      C2050   1.416       .  A
C2050      N2054   1.428       .  S
C2051      C2056   1.405       .  A
C2051      C2060   1.406       .  A
N2052      O2067   1.262       .  A
N2052      O2068   1.262   1_565  A
N2054      O2065   1.262       .  A
N2054      O2066   1.262       .  A
C2056      C2057   1.398   1_565  A
C2056      N2061   1.429       .  S
C2057      C2058   1.409       .  A
C2057      H2062   1.085       .  S
C2058      C2059   1.416   1_545  A
C2059      C2060   1.411       .  A
C2059      N2063   1.428       .  S
C2060      H2064   1.085       .  S
N2061      O2071   1.262       .  A
N2061      O2072   1.262   1_565  A
N2063      O2069   1.262       .  A
N2063      O2070   1.262       .  A
C2073      C2074   1.405       .  A
C2073      C2078   1.407       .  A
C2073      H2083   1.085       .  S
C2074      C2079   1.487       .  S
C2074      C2075   1.409       .  A
C2075      C2076   1.400       .  A
C2075      N2080   1.429       .  S
C2076      C2077   1.407       .  A
C2076      H2081   1.085       .  S
C2077      C2078   1.414       .  A
C2078      N2082   1.428       .  S
C2079      C2084   1.411       .  A
C2079      C2088   1.399       .  A
N2080      O2095   1.262       .  A
N2080      O2096   1.262       .  A
N2082      O2093   1.262       .  A
N2082      O2094   1.262       .  A
C2084      C2085   1.407       .  A
C2084      N2089   1.428       .  S
C2085      C2086   1.408   1_565  A
C2085      H2090   1.084   1_565  S
C2086      C2087   1.419   1_545  A
C2087      C2088   1.399       .  A
C2087      N2091   1.429       .  S
C2088      H2092   1.085       .  S
N2089      O2099   1.262       .  A
N2089      O2100   1.262       .  A
N2091      O2097   1.262       .  A
N2091      O2098   1.262       .  A
C2101      C2102   1.407       .  A
C2101      C2106   1.409       .  A
C2101      H2111   1.085       .  S
C2102      C2107   1.490       .  S
C2102      C2103   1.406       .  A
C2103      C2104   1.397       .  A
C2103      N2108   1.429       .  S
C2104      C2105   1.409       .  A
C2104      H2109   1.085       .  S
C2105      C2106   1.414       .  A
C2106      N2110   1.428       .  S
C2107      C2112   1.409       .  A
C2107      C2116   1.406       .  A
N2108      O2123   1.262       .  A
N2108      O2124   1.262       .  A
N2110      O2121   1.262       .  A
N2110      O2122   1.262       .  A
C2112      C2113   1.401       .  A
C2112      N2117   1.428       .  S
C2113      C2114   1.404       .  A
C2113      H2118   1.085       .  S
C2114      C2115   1.411       .  A
C2115      C2116   1.405       .  A
C2115      N2119   1.427       .  S
C2116      H2120   1.085       .  S
N2117      O2127   1.262       .  A
N2117      O2128   1.262       .  A
N2119      O2125   1.262       .  A
N2119      O2126   1.262       .  A
C2129      C2130   1.399       .  A
C2129      C2134   1.397       .  A
C2129      H2139   1.086       .  S
C2130      C2135   1.482       .  S
C2130      C2131   1.410       .  A
C2131      C2132   1.405       .  A
C2131      N2136   1.428       .  S
C2132      C2133   1.406       .  A
C2132      H2137   1.085       .  S
C2133      C2134   1.419       .  A
C2134      N2138   1.431       .  S
C2135      C2140   1.410       .  A
C2135      C2144   1.398       .  A
N2136      O2151   1.262       .  A
N2136      O2152   1.262       .  A
N2138      O2149   1.262       .  A
N2138      O2150   1.262       .  A
C2140      C2141   1.403       .  A
C2140      N2145   1.428       .  S
C2141      C2142   1.405       .  A
C2141      H2146   1.085       .  S
C2142      C2143   1.419       .  A
C2143      C2144   1.400       .  A
C2143      N2147   1.429       .  S
C2144      H2148   1.085       .  S
N2145      O2155   1.262       .  A
N2145      O2156   1.262       .  A
N2147      O2153   1.262       .  A
N2147      O2154   1.261       .  A
C2157      C2158   1.405       .  A
C2157      C2162   1.411       .  A
C2157      H2167   1.085       .  S
C2158      C2163   1.485       .  S
C2158      C2159   1.408       .  A
C2159      C2160   1.394       .  A
C2159      N2164   1.430       .  S
C2160      C2161   1.405       .  A
C2160      H2165   1.085       .  S
C2161      C2162   1.415       .  A
C2162      N2166   1.428       .  S
C2163      C2168   1.411       .  A
C2163      C2172   1.397       .  A
N2164      O2179   1.262       .  A
N2164      O2180   1.262       .  A
N2166      O2177   1.262       .  A
N2166      O2178   1.262       .  A
C2168      C2169   1.408       .  A
C2168      N2173   1.428       .  S
C2169      C2170   1.407       .  A
C2169      H2174   1.085       .  S
C2170      C2171   1.419       .  A
C2171      C2172   1.396       .  A
C2171      N2175   1.429       .  S
C2172      H2176   1.086       .  S
N2173      O2183   1.262       .  A
N2173      O2184   1.262       .  A
N2175      O2181   1.262       .  A
N2175      O2182   1.262       .  A
C2185      C2186   1.404       .  A
C2185      C2190   1.402       .  A
C2185      H2195   1.085       .  S
C2186      C2191   1.486   1_556  S
C2186      C2187   1.409       .  A
C2187      C2188   1.401       .  A
C2187      N2192   1.428   1_556  S
C2188      C2189   1.404       .  A
C2188      H2193   1.085       .  S
C2189      C2190   1.410       .  A
C2190      N2194   1.426       .  S
C2191      C2196   1.406   1_655  A
C2191      C2200   1.406       .  A
N2192      O2207   1.262       .  A
N2192      O2208   1.262       .  A
N2194      O2205   1.262       .  A
N2194      O2206   1.262       .  A
C2196      C2197   1.396       .  A
C2196      N2201   1.429   1_554  S
C2197      C2198   1.407       .  A
C2197      H2202   1.085       .  S
C2198      C2199   1.415   1_455  A
C2199      C2200   1.407       .  A
C2199      N2203   1.429       .  S
C2200      H2204   1.085       .  S
N2201      O2211   1.262       .  A
N2201      O2212   1.262       .  A
N2203      O2209   1.262       .  A
N2203      O2210   1.262       .  A
C2213      C2214   1.404       .  A
C2213      C2218   1.406       .  A
C2213      H2223   1.085       .  S
C2214      C2219   1.481       .  S
C2214      C2215   1.406       .  A
C2215      C2216   1.394       .  A
C2215      N2220   1.429       .  S
C2216      C2217   1.408       .  A
C2216      H2221   1.085       .  S
C2217      C2218   1.415       .  A
C2218      N2222   1.428       .  S
C2219      C2224   1.407   1_556  A
C2219      C2228   1.405       .  A
N2220      O2235   1.262       .  A
N2220      O2236   1.262   1_556  A
N2222      O2233   1.262       .  A
N2222      O2234   1.262       .  A
C2224      C2225   1.395       .  A
C2224      N2229   1.429       .  S
C2225      C2226   1.405       .  A
C2225      H2230   1.085       .  S
C2226      C2227   1.412       .  A
C2227      C2228   1.404   1_554  A
C2227      N2231   1.428       .  S
C2228      H2232   1.085       .  S
N2229      O2239   1.262       .  A
N2229      O2240   1.262       .  A
N2231      O2237   1.262   1_554  A
N2231      O2238   1.262       .  A
C2241      C2242   1.402       .  A
C2241      C2246   1.399       .  A
C2241      H2251   1.085       .  S
C2242      C2247   1.487       .  S
C2242      C2243   1.413       .  A
C2243      C2244   1.404       .  A
C2243      N2248   1.429       .  S
C2244      C2245   1.404       .  A
C2244      H2249   1.085       .  S
C2245      C2246   1.414       .  A
C2246      N2250   1.429       .  S
C2247      C2252   1.410       .  A
C2247      C2256   1.405       .  A
N2248      O2263   1.262       .  A
N2248      O2264   1.262       .  A
N2250      O2261   1.262       .  A
N2250      O2262   1.262       .  A
C2252      C2253   1.400       .  A
C2252      N2257   1.430       .  S
C2253      C2254   1.407       .  A
C2253      H2258   1.085       .  S
C2254      C2255   1.412       .  A
C2255      C2256   1.403       .  A
C2255      N2259   1.428       .  S
C2256      H2260   1.085       .  S
N2257      O2267   1.262       .  A
N2257      O2268   1.262       .  A
N2259      O2265   1.262       .  A
N2259      O2266   1.262       .  A
C2269      C2270   1.403       .  A
C2269      C2274   1.401       .  A
C2269      H2279   1.085       .  S
C2270      C2275   1.490       .  S
C2270      C2271   1.415       .  A
C2271      C2272   1.404       .  A
C2271      N2276   1.428       .  S
C2272      C2273   1.400       .  A
C2272      H2277   1.085   1_655  S
C2273      C2274   1.412       .  A
C2274      N2278   1.430       .  S
C2275      C2280   1.412       .  A
C2275      C2284   1.402       .  A
N2276      O2291   1.262   1_655  A
N2276      O2292   1.262       .  A
N2278      O2289   1.262       .  A
N2278      O2290   1.262       .  A
C2280      C2281   1.405       .  A
C2280      N2285   1.428       .  S
C2281      C2282   1.405       .  A
C2281      H2286   1.085       .  S
C2282      C2283   1.415       .  A
C2283      C2284   1.401       .  A
C2283      N2287   1.429       .  S
C2284      H2288   1.085       .  S
N2285      O2295   1.262       .  A
N2285      O2296   1.262       .  A
N2287      O2293   1.262       .  A
N2287      O2294   1.262       .  A
C2297      C2298   1.406       .  A
C2297      C2302   1.405       .  A
C2297      H2307   1.085       .  S
C2298      C2303   1.483       .  S
C2298      C2299   1.410       .  A
C2299      C2300   1.395       .  A
C2299      N2304   1.430       .  S
C2300      C2301   1.404       .  A
C2300      H2305   1.085       .  S
C2301      C2302   1.412       .  A
C2302      N2306   1.428       .  S
C2303      C2308   1.411       .  A
C2303      C2312   1.399       .  A
N2304      O2319   1.262       .  A
N2304      O2320   1.262       .  A
N2306      O2317   1.262       .  A
N2306      O2318   1.262       .  A
C2308      C2309   1.403       .  A
C2308      N2313   1.429       .  S
C2309      C2310   1.405   1_654  A
C2309      H2314   1.085   1_655  S
C2310      C2311   1.416   1_455  A
C2311      C2312   1.396   1_556  A
C2311      N2315   1.429       .  S
C2312      H2316   1.086       .  S
N2313      O2323   1.262       .  A
N2313      O2324   1.262       .  A
N2315      O2321   1.262       .  A
N2315      O2322   1.262       .  A
C2325      C2326   1.404       .  A
C2325      C2330   1.403       .  A
C2325      H2335   1.085       .  S
C2326      C2331   1.482       .  S
C2326      C2327   1.410       .  A
C2327      C2328   1.397       .  A
C2327      N2332   1.429       .  S
C2328      C2329   1.401       .  A
C2328      H2333   1.085       .  S
C2329      C2330   1.410       .  A
C2330      N2334   1.429       .  S
C2331      C2336   1.412       .  A
C2331      C2340   1.402       .  A
N2332      O2347   1.262       .  A
N2332      O2348   1.262       .  A
N2334      O2345   1.262       .  A
N2334      O2346   1.262       .  A
C2336      C2337   1.403       .  A
C2336      N2341   1.428       .  S
C2337      C2338   1.401       .  A
C2337      H2342   1.085       .  S
C2338      C2339   1.408       .  A
C2339      C2340   1.395       .  A
C2339      N2343   1.430       .  S
C2340      H2344   1.085       .  S
N2341      O2351   1.262       .  A
N2341      O2352   1.261       .  A
N2343      O2349   1.262       .  A
N2343      O2350   1.262       .  A
C2353      C2354   1.402       .  A
C2353      C2358   1.396       .  A
C2353      H2363   1.085       .  S
C2354      C2359   1.494       .  S
C2354      C2355   1.417       .  A
C2355      C2356   1.407       .  A
C2355      N2360   1.429       .  S
C2356      C2357   1.403       .  A
C2356      H2361   1.085       .  S
C2357      C2358   1.414       .  A
C2358      N2362   1.430       .  S
C2359      C2364   1.416       .  A
C2359      C2368   1.404       .  A
N2360      O2375   1.262       .  A
N2360      O2376   1.262       .  A
N2362      O2373   1.262       .  A
N2362      O2374   1.262       .  A
C2364      C2365   1.403       .  A
C2364      N2369   1.429       .  S
C2365      C2366   1.402       .  A
C2365      H2370   1.085       .  S
C2366      C2367   1.414       .  A
C2367      C2368   1.400       .  A
C2367      N2371   1.429       .  S
C2368      H2372   1.084       .  S
N2369      O2379   1.262       .  A
N2369      O2380   1.261       .  A
N2371      O2377   1.262       .  A
N2371      O2378   1.262       .  A
C2381      C2382   1.405       .  A
C2381      C2386   1.405       .  A
C2381      H2391   1.085       .  S
C2382      C2387   1.499       .  S
C2382      C2383   1.416       .  A
C2383      C2384   1.404       .  A
C2383      N2388   1.429       .  S
C2384      C2385   1.403       .  A
C2384      H2389   1.085       .  S
C2385      C2386   1.414       .  A
C2386      N2390   1.429       .  S
C2387      C2392   1.416       .  A
C2387      C2396   1.402   1_565  A
N2388      O2403   1.262   1_565  A
N2388      O2404   1.262       .  A
N2390      O2401   1.262       .  A
N2390      O2402   1.262       .  A
C2392      C2393   1.408       .  A
C2392      N2397   1.429       .  S
C2393      C2394   1.405   1_565  A
C2393      H2398   1.085       .  S
C2394      C2395   1.416       .  A
C2395      C2396   1.402       .  A
C2395      N2399   1.429       .  S
C2396      H2400   1.085       .  S
N2397      O2407   1.262       .  A
N2397      O2408   1.262       .  A
N2399      O2405   1.262       .  A
N2399      O2406   1.262       .  A
C2409      C2410   1.397       .  A
C2409      C2414   1.396       .  A
C2409      H2419   1.086       .  S
C2410      C2415   1.484       .  S
C2410      C2411   1.410       .  A
C2411      C2412   1.409       .  A
C2411      N2416   1.427       .  S
C2412      C2413   1.407       .  A
C2412      H2417   1.085       .  S
C2413      C2414   1.420       .  A
C2414      N2418   1.430       .  S
C2415      C2420   1.408       .  A
C2415      C2424   1.405       .  A
N2416      O2431   1.262       .  A
N2416      O2432   1.261       .  A
N2418      O2429   1.262       .  A
N2418      O2430   1.262       .  A
C2420      C2421   1.401       .  A
C2420      N2425   1.428       .  S
C2421      C2422   1.403       .  A
C2421      H2426   1.086       .  S
C2422      C2423   1.412       .  A
C2423      C2424   1.406       .  A
C2423      N2427   1.429       .  S
C2424      H2428   1.085       .  S
N2425      O2435   1.262       .  A
N2425      O2436   1.262       .  A
N2427      O2433   1.262       .  A
N2427      O2434   1.262       .  A
C2437      C2438   1.406   1_545  A
C2437      C2442   1.410   1_545  A
C2437      H2447   1.085       .  S
C2438      C2443   1.481   1_565  S
C2438      C2439   1.403       .  A
C2439      C2440   1.394       .  A
C2439      N2444   1.430       .  S
C2440      C2441   1.410       .  A
C2440      H2445   1.085       .  S
C2441      C2442   1.414       .  A
C2442      N2446   1.428       .  S
C2443      C2448   1.409       .  A
C2443      C2452   1.396       .  A
N2444      O2459   1.262       .  A
N2444      O2460   1.262       .  A
N2446      O2457   1.262       .  A
N2446      O2458   1.262   1_565  A
C2448      C2449   1.405       .  A
C2448      N2453   1.428       .  S
C2449      C2450   1.408       .  A
C2449      H2454   1.085       .  S
C2450      C2451   1.420       .  A
C2451      C2452   1.398       .  A
C2451      N2455   1.429   1_545  S
C2452      H2456   1.086   1_545  S
N2453      O2463   1.262       .  A
N2453      O2464   1.262       .  A
N2455      O2461   1.262   1_565  A
N2455      O2462   1.262       .  A
C2465      C2466   1.400       .  A
C2465      C2470   1.398   1_545  A
C2465      H2475   1.093       .  S
C2466      C2471   1.495       .  S
C2466      C2467   1.415   1_545  A
C2467      C2468   1.406       .  A
C2467      N2472   1.428       .  S
C2468      C2469   1.405       .  A
C2468      H2473   1.092       .  S
C2469      C2470   1.419       .  A
C2470      N2474   1.429       .  S
C2471      C2476   1.417       .  A
C2471      C2480   1.403       .  A
N2472      O2487   1.262   1_565  A
N2472      O2488   1.262       .  A
N2474      O2485   1.262   1_565  A
N2474      O2486   1.262       .  A
C2476      C2477   1.404       .  A
C2476      N2481   1.429       .  S
C2477      C2478   1.401       .  A
C2477      H2482   1.087       .  S
C2478      C2479   1.414       .  A
C2479      C2480   1.401       .  A
C2479      N2483   1.429       .  S
C2480      H2484   1.087       .  S
N2481      O2491   1.262       .  A
N2481      O2492   1.261       .  A
N2483      O2489   1.262       .  A
N2483      O2490   1.262       .  A
C2493      C2494   1.400       .  A
C2493      C2498   1.399       .  A
C2493      H2503   1.085       .  S
C2494      C2499   1.492       .  S
C2494      C2495   1.414       .  A
C2495      C2496   1.406       .  A
C2495      N2500   1.429       .  S
C2496      C2497   1.406       .  A
C2496      H2501   1.085       .  S
C2497      C2498   1.418       .  A
C2498      N2502   1.429       .  S
C2499      C2504   1.414       .  A
C2499      C2508   1.403       .  A
N2500      O2515   1.262       .  A
N2500      O2516   1.262       .  A
N2502      O2513   1.262       .  A
N2502      O2514   1.262       .  A
C2504      C2505   1.403       .  A
C2504      N2509   1.429       .  S
C2505      C2506   1.403       .  A
C2505      H2510   1.085       .  S
C2506      C2507   1.413       .  A
C2507      C2508   1.402       .  A
C2507      N2511   1.427       .  S
C2508      H2512   1.085       .  S
N2509      O2519   1.262       .  A
N2509      O2520   1.262       .  A
N2511      O2517   1.261       .  A
N2511      O2518   1.262       .  A
