geometry optimzed in LAMMPS
_audit_creation_date              2020-12-01 
_audit_creation_method            'lammps2cif' 
_symmetry_space_group_name_H-M    'P1' 
_symmetry_Int_Tables_number       1 
_symmetry_cell_setting            triclinic 
loop_ 
_symmetry_equiv_pos_as_xyz 
  x,y,z 
_cell_length_a                    26.68177065 
_cell_length_b                    26.329425742752022 
_cell_length_c                    27.683038519575234 
_cell_angle_alpha                 89.99773954428753 
_cell_angle_beta                  90.02349074084185 
_cell_angle_gamma                 89.82663172074419 
loop_ 
_atom_site_label 
_atom_site_type_symbol 
_atom_site_fract_x 
_atom_site_fract_y 
_atom_site_fract_z 
_atom_site_charge 
C1          C  0.19620318  0.24845668  0.19224105     0.32500
C2          C  0.26751207  0.29523022  0.24593050     0.32500
C3          C  0.23997289  0.27008620  0.16354380    -0.03700
C4          C  0.17744429  0.29372273  0.22209102    -0.04500
C5          C  0.22205062  0.21466284  0.22977462    -0.04300
C6          C  0.27776341  0.29374035  0.19143014    -0.03700
C7          C  0.21503779  0.31816448  0.24931914    -0.04500
C8          C  0.25853381  0.23904347  0.25870786    -0.04300
C9          C  0.32250307  0.28104249  0.16939455    -0.29700
N10         N  0.31299468  0.25286179  0.12979176     0.16800
C11         C  0.26344547  0.24600302  0.12576089    -0.29700
H12         H  0.24657746  0.21749034  0.10273584     0.18700
C13         C  0.19229061  0.33828796  0.28936061    -0.28700
N14         N  0.14311085  0.32773348  0.28768134     0.15500
C15         C  0.13330676  0.29994023  0.24776124    -0.28700
C16         C  0.25520622  0.21655297  0.30374295    -0.29000
N17         N  0.22067437  0.17916048  0.30201509     0.16000
H18         H  0.27150648  0.23107853  0.33677505     0.18600
C19         C  0.19988295  0.17815910  0.25785739    -0.29000
H20         H  0.16576764  0.15793472  0.24909630     0.18600
H21         H  0.09754871  0.28256815  0.23970501     0.18600
H22         H  0.35920439  0.28436688  0.18581082     0.18700
H23         H  0.21097698  0.35607893  0.31967185     0.18600
N24         N  0.07148771  0.51579185  0.36268496    -0.34100
N25         N  0.97952041  0.46314595  0.35986034    -0.54700
N26         N  0.92121355  0.55825117  0.36055555    -0.34100
N27         N  0.01262377  0.61128029  0.36323238    -0.54700
C28         C  0.08851361  0.46807448  0.35449636     0.29500
C29         C  0.10389146  0.54780173  0.34084725     0.29500
C30         C  0.89057220  0.52778907  0.33465533     0.29500
C31         C  0.90483055  0.60639342  0.35399652     0.29500
C32         C  0.00868759  0.42211727  0.36767605     0.38100
C33         C  0.93306867  0.44574893  0.35137839     0.38100
C34         C  0.05913434  0.62922824  0.35642959     0.38100
C35         C  0.98319431  0.65184429  0.37244492     0.38100
C36         C  0.13480324  0.47042802  0.33156095    -0.19400
C37         C  0.14400925  0.52059885  0.32223524    -0.19400
C38         C  0.85273302  0.55642018  0.31373950    -0.19400
C39         C  0.86126607  0.60593021  0.32647557    -0.19400
C40         C  0.97977922  0.37836518  0.36723049    -0.20400
C41         C  0.93188499  0.39335330  0.35600933    -0.20400
C42         C  0.05988530  0.68146694  0.36262844    -0.20400
C43         C  0.01174868  0.69576998  0.37385547    -0.20400
C44         C  0.06091847  0.42271451  0.36135882    -0.15800
C45         C  0.09789968  0.60068573  0.33577228    -0.15800
C46         C  0.93079378  0.65087046  0.36771080    -0.15800
C47         C  0.89576437  0.47494605  0.32901008    -0.15800
H48         H  0.15825653  0.43932137  0.31974016     0.17100
H49         H  0.17614896  0.53525939  0.30294254     0.17100
H50         H  0.82250222  0.54314261  0.29096063     0.17100
H51         H  0.83964562  0.63795319  0.31373218     0.17100
H52         H  0.99278511  0.33944781  0.36947693     0.15400
H53         H  0.90058957  0.36841239  0.34868731     0.15400
H54         H  0.09131272  0.70674620  0.35713323     0.15400
H55         H  0.99851948  0.73446106  0.37772749     0.15400
H56         H  0.03962298  0.52587113  0.38205379     0.28700
H57         H  0.95087634  0.54702261  0.38253553     0.28700
C58         C  0.71010291  0.72716670  0.26541047     0.32500
C59         C  0.76857635  0.78918887  0.21149221     0.32500
C60         C  0.72568526  0.70574892  0.21611791    -0.03700
C61         C  0.68608145  0.77873992  0.25298583    -0.04500
C62         C  0.75964432  0.74281277  0.28840290    -0.04300
C63         C  0.75599389  0.73810250  0.18800635    -0.03700
C64         C  0.71675691  0.81127394  0.22463409    -0.04500
C65         C  0.78998668  0.77416007  0.26077259    -0.04300
C66         C  0.74305844  0.72946016  0.14046331    -0.29700
N67         N  0.70764230  0.69312717  0.13852265     0.16800
C68         C  0.69614632  0.67916204  0.18405129    -0.29700
H69         H  0.66250015  0.65855976  0.19365016     0.18700
C70         C  0.70783198  0.85988462  0.24113483    -0.28700
N71         N  0.67408997  0.85861112  0.27730864     0.15500
C72         C  0.66086815  0.80987589  0.28494688    -0.28700
C73         C  0.83527727  0.77779944  0.28435397    -0.29000
N74         N  0.83230769  0.75033217  0.32575177     0.16000
H75         H  0.86926906  0.79431000  0.27000156     0.18600
C76         C  0.78623323  0.72907889  0.32861817    -0.29000
H77         H  0.77517955  0.70075179  0.35488148     0.18600
H78         H  0.64314600  0.79678765  0.31787272     0.18600
H79         H  0.75193349  0.75443657  0.11058921     0.18700
H80         H  0.73233374  0.89188543  0.23453464     0.18600
N81         N  0.15272844  0.01435098  0.44519172    -0.34100
N82         N  0.15410115  0.10726212  0.50049023    -0.54700
N83         N  0.18010661  0.05339244  0.58533235    -0.34100
N84         N  0.18446548  0.96126613  0.52928412    -0.54700
C85         C  0.16514717  0.04783795  0.41012946     0.29500
C86         C  0.16113763  0.96745443  0.42738239     0.29500
C87         C  0.17874120  0.10122652  0.60253632     0.29500
C88         C  0.21375453  0.02710485  0.61209200     0.29500
C89         C  0.14844703  0.12672508  0.45600101     0.38100
C90         C  0.14160520  0.14423934  0.53172980     0.38100
C91         C  0.16989298  0.92032628  0.50386853     0.38100
C92         C  0.20300215  0.94399364  0.57137200     0.38100
C93         C  0.17957381  0.02174348  0.36887477    -0.19400
C94         C  0.17631238  0.97094137  0.37949758    -0.19400
C95         C  0.20995026  0.10503032  0.64251433    -0.19400
C96         C  0.23271149  0.05832315  0.64805808    -0.19400
C97         C  0.13248210  0.17674615  0.45853739    -0.20400
C98         C  0.12697824  0.18761021  0.50684551    -0.20400
C99         C  0.17841855  0.87638655  0.53036571    -0.20400
C100        C  0.20027046  0.89140463  0.57301817    -0.20400
C101        C  0.16282838  0.10117568  0.41394869    -0.15800
C102        C  0.15890687  0.92201976  0.45429213    -0.15800
C103        C  0.22549895  0.97514427  0.60639868    -0.15800
C104        C  0.15196483  0.14183875  0.58137044    -0.15800
H105        H  0.19141907  0.03759829  0.33467299     0.17100
H106        H  0.18660697  0.94037461  0.35534281     0.17100
H107        H  0.21719229  0.13843462  0.66419266     0.17100
H108        H  0.25972578  0.04838073  0.67568979     0.17100
H109        H  0.12629246  0.20270072  0.42878082     0.15400
H110        H  0.11694511  0.22420119  0.52187874     0.15400
H111        H  0.17258804  0.83754204  0.51890582     0.15400
H112        H  0.21312850  0.86653594  0.60163306     0.15400
H113        H  0.13678186  0.02212658  0.47864183     0.28700
H114        H  0.15603449  0.03921019  0.55919784     0.28700
N115        N  0.72662558  0.02444102  0.42930139    -0.34100
N116        N  0.70422652  0.93214273  0.47994878    -0.54700
N117        N  0.71475246  0.98585092  0.56840946    -0.34100
N118        N  0.72080854  0.08002874  0.51715778    -0.54700
C119        C  0.70596227  0.99826396  0.39244174     0.29500
C120        C  0.73671315  0.07158024  0.41351284     0.29500
C121        C  0.71248517  0.93804446  0.58469449     0.29500
C122        C  0.69650934  0.01651781  0.60317465     0.29500
C123        C  0.70039098  0.91478992  0.43440483     0.38100
C124        C  0.71841443  0.89247201  0.50749889     0.38100
C125        C  0.74791851  0.11403172  0.49219771     0.38100
C126        C  0.71769131  0.09741870  0.56270273     0.38100
C127        C  0.70384437  0.02937633  0.35191242    -0.19400
C128        C  0.72417206  0.07557880  0.36506955    -0.19400
C129        C  0.69463369  0.93756404  0.63167190    -0.19400
C130        C  0.68325198  0.98741104  0.64304078    -0.19400
C131        C  0.70848612  0.86265717  0.43350622    -0.20400
C132        C  0.72115901  0.84870637  0.47990613    -0.20400
C133        C  0.76090736  0.15452081  0.52170918    -0.20400
C134        C  0.74076656  0.14439282  0.56645176    -0.20400
C135        C  0.69382106  0.94599298  0.39342719    -0.15800
C136        C  0.75730375  0.11026410  0.44239425    -0.15800
C137        C  0.69671798  0.06994881  0.60121265    -0.15800
C138        C  0.72684950  0.89563445  0.55747622    -0.15800
H139        H  0.69048001  0.01939172  0.31624484     0.17100
H140        H  0.72830479  0.10851652  0.34201453     0.17100
H141        H  0.68925839  0.90475914  0.65465777     0.17100
H142        H  0.66878762  0.00082955  0.67727805     0.17100
H143        H  0.70828600  0.83786250  0.40231477     0.15400
H144        H  0.73078347  0.81082692  0.49202457     0.15400
H145        H  0.78204036  0.18799624  0.51190477     0.15400
H146        H  0.74483021  0.16756935  0.59851582     0.15400
H147        H  0.73962710  0.01003951  0.46167420     0.28700
H148        H  0.73397149  0.99617499  0.53759161     0.28700
C149        C  0.20952767  0.80273889  0.75292887     0.32500
C150        C  0.27055331  0.75049807  0.69329730     0.32500
C151        C  0.22225542  0.74904748  0.77003509    -0.03700
C152        C  0.18915676  0.79497445  0.70148530    -0.04500
C153        C  0.26086577  0.82723594  0.74496202    -0.04300
C154        C  0.25433975  0.72195929  0.73902081    -0.03700
C155        C  0.22073846  0.76676763  0.67049659    -0.04500
C156        C  0.29225673  0.80113391  0.71190790    -0.04300
C157        C  0.28281638  0.69050641  0.76783243    -0.29700
N158        N  0.26910857  0.69682855  0.81432117     0.16800
C159        C  0.23323578  0.73299177  0.81625234    -0.29700
H160        H  0.22278244  0.75296872  0.84895499     0.18700
C161        C  0.18965827  0.73686236  0.64281079    -0.28700
N162        N  0.14156903  0.74586567  0.65515259     0.15500
C163        C  0.14089589  0.78156069  0.68995716    -0.28700
C164        C  0.31261671  0.83897070  0.68310262    -0.29000
N165        N  0.29648078  0.88512794  0.69812167     0.16000
H166        H  0.32716043  0.83218053  0.64713228     0.18600
C167        C  0.26716958  0.87822724  0.73695067    -0.29000
H168        H  0.24092202  0.90682373  0.74957924     0.18600
H169        H  0.10911068  0.78771861  0.71364867     0.18600
H170        H  0.31718907  0.67188067  0.75670624     0.18700
H171        H  0.20183515  0.70282174  0.62413149     0.18600
N172        N  0.07370808  0.54039745  0.71207862    -0.34100
N173        N  0.98297629  0.59285147  0.72458750    -0.54700
N174        N  0.92975283  0.49911469  0.72460379    -0.34100
N175        N  0.02077730  0.44800209  0.72938060    -0.54700
C176        C  0.08872718  0.58870653  0.70667038     0.29500
C177        C  0.10872731  0.51589398  0.73864722     0.29500
C178        C  0.89685437  0.52713060  0.75029234     0.29500
C179        C  0.91385470  0.45084855  0.72541242     0.29500
C180        C  0.00699000  0.63049808  0.70151229     0.38100
C181        C  0.93702757  0.61023411  0.73559396     0.38100
C182        C  0.06755084  0.43184585  0.73807480     0.38100
C183        C  0.99406655  0.40765429  0.71481201     0.38100
C184        C  0.13573639  0.59492241  0.72712395    -0.19400
C185        C  0.14799761  0.54892601  0.74829393    -0.19400
C186        C  0.85817984  0.49609619  0.76624283    -0.19400
C187        C  0.86850608  0.44776094  0.74955794    -0.19400
C188        C  0.97641721  0.67312090  0.69867660    -0.20400
C189        C  0.93215833  0.66054631  0.72149933    -0.20400
C190        C  0.07066201  0.37973817  0.73105739    -0.20400
C191        C  0.02397547  0.36449069  0.71485036    -0.20400
C192        C  0.05793926  0.62793965  0.68897123    -0.15800
C193        C  0.10647721  0.46427690  0.75256176    -0.15800
C194        C  0.94192708  0.40959438  0.70815151    -0.15800
C195        C  0.89941570  0.58017955  0.75655408    -0.15800
H196        H  0.15717643  0.62968934  0.72950943     0.17100
H197        H  0.18180639  0.54080525  0.76852151     0.17100
H198        H  0.82567859  0.50718316  0.78716198     0.17100
H199        H  0.84672228  0.41393626  0.75660603     0.17100
H200        H  0.98567374  0.70978209  0.68346775     0.15400
H201        H  0.89960196  0.68481609  0.72556259     0.15400
H202        H  0.10329411  0.35572976  0.73586444     0.15400
H203        H  0.01272062  0.32599733  0.70659347     0.15400
H204        H  0.04211553  0.52551614  0.69551023     0.28700
H205        H  0.95931863  0.51163353  0.70349486     0.28700
C206        C  0.71135931  0.30026400  0.71105129     0.32500
C207        C  0.76940604  0.24021836  0.76673579     0.32500
C208        C  0.68806452  0.24888463  0.72461160    -0.03700
C209        C  0.76236886  0.28591195  0.68900866    -0.04500
C210        C  0.72466827  0.32308499  0.76065004    -0.04300
C211        C  0.71810576  0.21800486  0.75455560    -0.03700
C212        C  0.79156159  0.25300921  0.71753173    -0.04500
C213        C  0.75660791  0.29201072  0.78924194    -0.04300
C214        C  0.70758617  0.16856183  0.74278118    -0.29700
N215        N  0.67315918  0.16784796  0.70725560     0.16800
C216        C  0.66155326  0.21620035  0.69538715    -0.29700
H217        H  0.64346233  0.22695253  0.66184920     0.18700
C218        C  0.84088516  0.26346376  0.70825315    -0.28700
N219        N  0.84357520  0.30248598  0.67720146     0.15500
C220        C  0.79636467  0.31719578  0.66588864    -0.28700
C221        C  0.74121187  0.29780014  0.83632994    -0.29000
N222        N  0.70022122  0.32759648  0.83792192     0.16000
H223        H  0.75080683  0.27127159  0.86486592     0.18600
C224        C  0.69030479  0.34379730  0.79263004    -0.29000
H225        H  0.65409938  0.35868748  0.78181106     0.18600
H226        H  0.78718992  0.35377487  0.65023873     0.18600
H227        H  0.73119047  0.13638863  0.75189381     0.18700
H228        H  0.87185546  0.25152874  0.73097442     0.18600
N229        N  0.50453427  0.69571684  0.04958503    -0.34100
N230        N  0.41336898  0.69745848  0.99130365    -0.54700
N231        N  0.46845487  0.71206506  0.90696981    -0.34100
N232        N  0.55920654  0.71654026  0.96554608    -0.54700
C233        C  0.47200629  0.71649360  0.08136470     0.29500
C234        C  0.55093552  0.70204601  0.06798340     0.29500
C235        C  0.42178449  0.71138900  0.88814594     0.29500
C236        C  0.49635508  0.74315475  0.87914578     0.29500
C237        C  0.39362263  0.69988656  0.03576949     0.38100
C238        C  0.37596059  0.68482801  0.96104277     0.38100
C239        C  0.59903790  0.70326512  0.99276411     0.38100
C240        C  0.57723976  0.73410851  0.92348945     0.38100
C241        C  0.49807318  0.73425211  0.12137190    -0.19400
C242        C  0.54795785  0.72422820  0.11328681    -0.19400
C243        C  0.42072481  0.73959148  0.84581020    -0.19400
C244        C  0.46766206  0.76034598  0.84055552    -0.19400
C245        C  0.34300051  0.68837219  0.03429862    -0.20400
C246        C  0.33195249  0.67755760  0.98678968    -0.20400
C247        C  0.64308798  0.71146794  0.96743253    -0.20400
C248        C  0.62925488  0.73210094  0.92369820    -0.20400
C249        C  0.41954400  0.71923860  0.07567453    -0.15800
C250        C  0.59586369  0.69378740  0.04261129    -0.15800
C251        C  0.54731010  0.75498474  0.88659646    -0.15800
C252        C  0.37934974  0.68994070  0.91061979    -0.15800
H253        H  0.48281755  0.75285128  0.15300627     0.17100
H254        H  0.57867060  0.73526725  0.13655751     0.17100
H255        H  0.38884243  0.74689102  0.82260625     0.17100
H256        H  0.47926171  0.78533311  0.81161932     0.17100
H257        H  0.31672483  0.68909670  0.06407750     0.15400
H258        H  0.29507783  0.66954874  0.97242321     0.15400
H259        H  0.68109425  0.70674711  0.98040600     0.15400
H260        H  0.65451639  0.74470405  0.89557081     0.15400
H261        H  0.49612245  0.67629700  0.01790556     0.28700
H262        H  0.48088119  0.68980798  0.93551815     0.28700
N263        N  0.51255895  0.17596691  0.06155096    -0.34100
N264        N  0.58642043  0.22286665  0.00157614    -0.54700
N265        N  0.52159496  0.21270951  0.91749032    -0.34100
N266        N  0.44641921  0.17136903  0.97820270    -0.54700
C267        C  0.54771158  0.18797237  0.09445725     0.29500
C268        C  0.46783692  0.18070695  0.08382185     0.29500
C269        C  0.55293348  0.24929979  0.90142767     0.29500
C270        C  0.48347353  0.20923545  0.88548411     0.29500
C271        C  0.61637684  0.21142367  0.03934820     0.38100
C272        C  0.61575213  0.24499510  0.96807204     0.38100
C273        C  0.41338950  0.16142650  0.01358037     0.38100
C274        C  0.42288892  0.16187866  0.93618862     0.38100
C275        C  0.52568059  0.19693701  0.13901749    -0.19400
C276        C  0.47498270  0.19326918  0.13206626    -0.19400
C277        C  0.53524859  0.26815275  0.85776465    -0.19400
C278        C  0.49167046  0.24252836  0.84748175    -0.19400
C279        C  0.66516681  0.22640438  0.02988553    -0.20400
C280        C  0.66463853  0.24832932  0.98485028    -0.20400
C281        C  0.36846023  0.14486554  0.99431133    -0.20400
C282        C  0.37480868  0.14393438  0.94510915    -0.20400
C283        C  0.59865715  0.19473470  0.08447581    -0.15800
C284        C  0.42072852  0.17526854  0.06182725    -0.15800
C285        C  0.44021714  0.17891622  0.89096315    -0.15800
C286        C  0.59853608  0.26389288  0.92342080    -0.15800
H287        H  0.54394682  0.20810847  0.17227099     0.17100
H288        H  0.44658544  0.19974022  0.15931773     0.17100
H289        H  0.55208241  0.29723333  0.83545455     0.17100
H290        H  0.46790627  0.24894753  0.81635922     0.17100
H291        H  0.69722482  0.22388396  0.05375540     0.15400
H292        H  0.69653429  0.26485893  0.96659121     0.15400
H293        H  0.33425640  0.13632013  0.01366425     0.15400
H294        H  0.34586154  0.13539410  0.91896334     0.15400
H295        H  0.51956141  0.16379341  0.02649234     0.28700
H296        H  0.52783357  0.18828183  0.94628849     0.28700
C297        C  0.76343041  0.79026171  0.77416204     0.32500
C298        C  0.70615571  0.72356386  0.72526698     0.32500
C299        C  0.71030875  0.80915956  0.76248186    -0.03700
C300        C  0.78418913  0.77444874  0.72429246    -0.04500
C301        C  0.75484535  0.73934627  0.79994522    -0.04300
C302        C  0.68116431  0.77491380  0.73526920    -0.03700
C303        C  0.75483562  0.73786807  0.69968291    -0.04500
C304        C  0.72371781  0.70489905  0.77480949    -0.04300
C305        C  0.63233441  0.78187285  0.74892649    -0.29700
N306        N  0.63033452  0.81597051  0.78502110     0.16800
C307        C  0.67724458  0.83288560  0.79357291    -0.29700
H308        H  0.68827382  0.85143897  0.82683849     0.18700
C309        C  0.75811399  0.74826570  0.65129886    -0.28700
N310        N  0.78476288  0.79085170  0.64498841     0.15500
C311        C  0.80109479  0.80691169  0.68861564    -0.28700
C312        C  0.74307883  0.65721148  0.78300985    -0.29000
N313        N  0.78525732  0.66093536  0.80933523     0.16000
H314        H  0.73472661  0.62458577  0.76053522     0.18600
C315        C  0.79221016  0.71019805  0.82064319    -0.29000
H316        H  0.82804295  0.72527520  0.83211842     0.18600
H317        H  0.81367408  0.84534790  0.69539142     0.18600
H318        H  0.60289687  0.75449493  0.74202682     0.18700
H319        H  0.73193293  0.73397507  0.62462122     0.18600
C320        C  0.80699573  0.25419606  0.23966892     0.32500
C321        C  0.73112157  0.30006708  0.28836923     0.32500
C322        C  0.81614460  0.26004553  0.29404535    -0.03700
C323        C  0.79521172  0.30926230  0.22370875    -0.04500
C324        C  0.75664793  0.22710802  0.23792546    -0.04300
C325        C  0.77699531  0.28525221  0.31913206    -0.03700
C326        C  0.75400755  0.33227729  0.24804997    -0.04500
C327        C  0.71708819  0.25062865  0.26281970    -0.04300
C328        C  0.77549260  0.26467382  0.36454853    -0.29700
N329        N  0.80989293  0.22742652  0.36788685     0.16800
C330        C  0.83452667  0.22386411  0.32546040    -0.29700
H331        H  0.85607258  0.19083777  0.31463032     0.18700
C332        C  0.76528675  0.38267725  0.25387071    -0.28700
N333        N  0.81226461  0.39115882  0.23879115     0.15500
C334        C  0.83053925  0.34758433  0.21973032    -0.28700
C335        C  0.67417952  0.23819466  0.23777528    -0.29000
N336        N  0.68646164  0.20658474  0.20116918     0.16000
H337        H  0.63822207  0.25701838  0.24129594     0.18600
C338        C  0.73634516  0.20014977  0.20043214    -0.29000
H339        H  0.75687761  0.18442420  0.17013594     0.18600
H340        H  0.87023571  0.34060025  0.21468004     0.18600
H341        H  0.74394978  0.26835194  0.38898647     0.18700
H342        H  0.74622290  0.40725624  0.27942552     0.18600
C343        C  0.26860063  0.29986636  0.73866518     0.32500
C344        C  0.20649549  0.24932156  0.79863203     0.32500
C345        C  0.28503456  0.24581036  0.75055557    -0.03700
C346        C  0.26138513  0.32497157  0.78828490    -0.04500
C347        C  0.21477828  0.29361350  0.72009059    -0.04300
C348        C  0.25308660  0.21962056  0.78218781    -0.03700
C349        C  0.22717422  0.29948992  0.81926407    -0.04500
C350        C  0.18256244  0.26689851  0.75119508    -0.04300
C351        C  0.28326595  0.18740435  0.80869415    -0.29700
N352        N  0.33111903  0.19209894  0.79353236     0.16800
C353        C  0.33280360  0.22814828  0.75904874    -0.29700
H354        H  0.36690752  0.24677751  0.74749402     0.18700
C355        C  0.19709497  0.33764441  0.83819896    -0.28700
N356        N  0.21124146  0.38326923  0.82054832     0.15500
C357        C  0.25211010  0.37609758  0.79309334    -0.28700
C358        C  0.14838290  0.24233904  0.72244579    -0.29000
N359        N  0.15789660  0.25369338  0.67584486     0.16000
H360        H  0.12498513  0.21102941  0.73394207     0.18600
C361        C  0.19856272  0.28393699  0.67390177    -0.29000
H362        H  0.22052386  0.29011033  0.64152845     0.18600
H363        H  0.26450812  0.40387397  0.76677677     0.18600
H364        H  0.27250917  0.16888646  0.84204676     0.18700
H365        H  0.15982864  0.33071121  0.85225659     0.18600
C366        C  0.28915015  0.75690731  0.28406133     0.32500
C367        C  0.22313870  0.80695015  0.22686475     0.32500
C368        C  0.31312341  0.79549976  0.25009004    -0.03700
C369        C  0.25882887  0.72301028  0.24978015    -0.04500
C370        C  0.24907595  0.78731145  0.31026795    -0.04300
C371        C  0.27872489  0.82061683  0.21876619    -0.03700
C372        C  0.22258482  0.74875868  0.22118050    -0.04500
C373        C  0.21558938  0.81333107  0.28100651    -0.04300
C374        C  0.30213702  0.82179746  0.17418427    -0.29700
N375        N  0.34789003  0.80018980  0.17766104     0.16800
C376        C  0.35538058  0.78547500  0.22350097    -0.29700
H377        H  0.38385629  0.75812110  0.23391601     0.18700
C378        C  0.18071954  0.71782712  0.22203110    -0.28700
N379        N  0.19124109  0.67501444  0.24700849     0.15500
C380        C  0.23864783  0.67729536  0.26274768    -0.28700
C381        C  0.17993274  0.83444287  0.31044593    -0.29000
N382        N  0.19125638  0.82152322  0.35650571     0.16000
H383        H  0.14873931  0.85820129  0.29949886     0.18600
C384        C  0.23358350  0.79315863  0.35713191    -0.29000
H385        H  0.25206235  0.77894299  0.38924786     0.18600
H386        H  0.25302208  0.65354452  0.29163128     0.18600
H387        H  0.28275041  0.82724265  0.14017173     0.18700
H388        H  0.14294453  0.73065804  0.21432040     0.18600
O389        O  0.02063072  0.08462686  0.04627716    -0.77600
O390        O  0.95100751  0.05229995  0.87270697    -0.77600
O391        O  0.09080690  0.04459511  0.94230320    -0.77700
O392        O  0.92069449  0.08341241  0.04964754    -0.77600
O393        O  0.01995268  0.08550093  0.93734303    -0.77700
O394        O  0.95768139  0.05217832  0.11572959    -0.77600
O395        O  0.92007759  0.08347416  0.94168926    -0.77600
O396        O  0.09183345  0.04461581  0.04113417    -0.77700
C397        C  0.06724221  0.08399306  0.05280128     1.12100
C398        C  0.92219298  0.08323641  0.89472221     1.11900
C399        C  0.06679088  0.08441588  0.93109259     1.12100
C400        C  0.92941121  0.08528916  0.09610547     1.12000
O401        O  0.95360104  0.95492314  0.07908575    -0.77600
O402        O  0.03858593  0.98939755  0.88564713    -0.77700
O403        O  0.06853075  0.93679379  0.04138667    -0.77600
O404        O  0.88371702  0.97871633  0.94605658    -0.77600
O405        O  0.95027264  0.95539643  0.90820241    -0.77700
O406        O  0.04277873  0.98864484  0.09823891    -0.77600
O407        O  0.88583221  0.97740325  0.04263755    -0.77600
O408        O  0.06673661  0.93748434  0.94164060    -0.77700
Co409      Co  0.98501019  0.01987728  0.05974935     1.51500
Co410      Co  0.98285137  0.02041271  0.92645873     1.51700
Co411      Co  0.07283098  0.99096017  0.99173873     1.51600
Co412      Co  0.91427594  0.02735317  0.99483495     1.51500
O413        O  0.99380861  0.99708393  0.99297574    -1.39600
C414        C  0.90774665  0.94875947  0.07225305     1.12000
C415        C  0.06297425  0.94955952  0.89759084     1.12100
C416        C  0.06682032  0.94883229  0.08552411     1.12000
C417        C  0.90428999  0.95019451  0.91527169     1.12000
O418        O  0.46144277  0.45485234  0.38336520    -0.77600
O419        O  0.42501045  0.54583708  0.57129814    -0.77600
O420        O  0.40959030  0.42596319  0.54011305    -0.77700
O421        O  0.46155715  0.61214497  0.44354739    -0.77600
O422        O  0.45775178  0.45566197  0.59792010    -0.77700
O423        O  0.43025155  0.54637963  0.40903420    -0.77600
O424        O  0.45707404  0.61210578  0.53866189    -0.77600
O425        O  0.41162761  0.42458488  0.43976095    -0.77700
C426        C  0.42287922  0.42921348  0.39548233     1.12100
C427        C  0.42380741  0.59284258  0.56492171     1.11900
C428        C  0.41934325  0.43078772  0.58461832     1.12100
C429        C  0.42976330  0.59340978  0.41553254     1.12000
O430        O  0.52588141  0.54323327  0.37126237    -0.77600
O431        O  0.55420520  0.47264664  0.55176625    -0.77700
O432        O  0.51671632  0.39861920  0.44197345    -0.77600
O433        O  0.55752107  0.57038433  0.54822180    -0.77600
O434        O  0.51832904  0.54333188  0.61438502    -0.77700
O435        O  0.55705872  0.46979196  0.43301703    -0.77600
O436        O  0.56081878  0.56858310  0.44046872    -0.77600
O437        O  0.51526543  0.40055731  0.54257632    -0.77700
Co438      Co  0.49374971  0.51008057  0.42443543     1.51500
Co439      Co  0.49010173  0.51137003  0.55846840     1.51700
Co440      Co  0.46392947  0.41928125  0.49116685     1.51600
Co441      Co  0.50546456  0.57856784  0.49260877     1.51500
O442        O  0.47191104  0.49921155  0.49106816    -1.39600
C443        C  0.55876860  0.56944549  0.39351496     1.12000
C444        C  0.55261446  0.42533194  0.55823525     1.12100
C445        C  0.55503978  0.42231486  0.42722922     1.12000
C446        C  0.55278954  0.56969546  0.59494004     1.12000
C447        C  0.18652694  0.83613616  0.19655469    -0.16000
C448        C  0.15683956  0.86154106  0.17311787     0.08100
C449        C  0.12271286  0.89230632  0.14544685     0.09900
C450        C  0.09538961  0.91852165  0.12021308    -0.16800
C451        C  0.32343302  0.72742853  0.31596827    -0.16000
C452        C  0.34709081  0.69730248  0.34023920     0.08100
C453        C  0.37282379  0.65897059  0.36703908     0.09900
C454        C  0.39628175  0.62695274  0.38923080    -0.16800
C455        C  0.30254028  0.32816512  0.70539142    -0.16000
C456        C  0.32948674  0.35282880  0.67885478     0.08100
C457        C  0.36083764  0.38204117  0.64754821     0.09900
C458        C  0.38752156  0.40569019  0.61993090    -0.16800
C459        C  0.09284580  0.12618528  0.90715249    -0.16000
C460        C  0.11677896  0.15774943  0.88456702     0.08100
C461        C  0.14640378  0.19227423  0.85630492     0.09900
C462        C  0.17263615  0.21956345  0.83119307    -0.16800
C463        C  0.90949889  0.12714582  0.12569385    -0.16000
C464        C  0.89220794  0.16020630  0.15217591     0.08100
C465        C  0.86949450  0.19717678  0.18408977     0.09900
C466        C  0.84575092  0.22587449  0.21053348    -0.16800
C467        C  0.59395441  0.39548832  0.39959690    -0.16000
C468        C  0.62416782  0.37305373  0.37388120     0.08100
C469        C  0.65919700  0.34695536  0.34271431     0.09900
C470        C  0.68998494  0.32535527  0.31700518    -0.16800
C471        C  0.58807411  0.59755142  0.62490025    -0.16000
C472        C  0.61584918  0.62418278  0.64882002     0.08100
C473        C  0.64746471  0.65753330  0.67587665     0.09900
C474        C  0.67398163  0.68681054  0.69828159    -0.16800
C475        C  0.79519587  0.82670783  0.80275530    -0.16000
C476        C  0.82049834  0.85451995  0.82852830     0.08100
C477        C  0.84994864  0.88652968  0.85998795     0.09900
C478        C  0.87476675  0.91429787  0.88626660    -0.16800
C479        C  0.37230558  0.18003955  0.82237180    -0.10800
C480        C  0.40580628  0.17580743  0.85100217    -0.12300
C481        C  0.63205630  0.19448550  0.12494790    -0.10800
C482        C  0.65677076  0.19821180  0.16076558    -0.12300
C483        C  0.59631772  0.80770202  0.82214754    -0.10800
C484        C  0.57126665  0.78823501  0.85274189    -0.12300
C485        C  0.39156618  0.74832685  0.11029872    -0.10800
C486        C  0.37113023  0.77447912  0.13978701    -0.12300
C487        C  0.89292575  0.11990789  0.86741951    -0.16000
C488        C  0.86530493  0.14828840  0.84514444     0.08100
C489        C  0.83125400  0.18018040  0.81925179     0.09900
C490        C  0.80248137  0.20701755  0.79661801    -0.16800
C491        C  0.59036207  0.40035726  0.58833446    -0.16000
C492        C  0.61931450  0.37986538  0.61649628     0.08100
C493        C  0.65188004  0.35505070  0.65056734     0.09900
C494        C  0.67892943  0.33216966  0.67881833    -0.16800
C495        C  0.66229090  0.31645520  0.87100148    -0.10800
C496        C  0.63156923  0.29682975  0.89660568    -0.12300
C497        C  0.17574344  0.41873030  0.80483527    -0.10800
C498        C  0.14523911  0.44308762  0.78272635    -0.12300
C499        C  0.82567471  0.62907282  0.79920980    -0.10800
C500        C  0.85976644  0.60525788  0.78233091    -0.12300
C501        C  0.91485673  0.36670977  0.69025641    -0.10800
C502        C  0.88379501  0.33592310  0.67968362    -0.12300
C503        C  0.17505115  0.83243391  0.78479361    -0.16000
C504        C  0.14694726  0.85905369  0.80854498     0.08100
C505        C  0.11481223  0.89148661  0.83628015     0.09900
C506        C  0.08925643  0.91879985  0.86193204    -0.16800
C507        C  0.30400967  0.71950550  0.66133703    -0.16000
C508        C  0.32995521  0.69056290  0.63756716     0.08100
C509        C  0.36027858  0.65499008  0.61114025     0.09900
C510        C  0.38744418  0.62534070  0.58950848    -0.16800
C511        C  0.30176824  0.68682356  0.85250817    -0.10800
C512        C  0.33476279  0.68431867  0.88186890    -0.12300
C513        C  0.10669397  0.70677857  0.65646942    -0.10800
C514        C  0.08138605  0.67119591  0.66744383    -0.12300
C515        C  0.80064762  0.18570073  0.39722344    -0.10800
C516        C  0.78392211  0.15053460  0.41917430    -0.12300
C517        C  0.77056527  0.82467312  0.60883913    -0.10800
C518        C  0.75106160  0.85477047  0.58238281    -0.12300
C519        C  0.67985121  0.09837291  0.64226633    -0.10800
C520        C  0.67222871  0.12854524  0.67373866    -0.12300
C521        C  0.17116586  0.84568486  0.39668541    -0.10800
C522        C  0.16008344  0.87553420  0.42741330    -0.12300
C523        C  0.14429885  0.18647197  0.60999500    -0.10800
C524        C  0.14630198  0.22032191  0.63866575    -0.12300
C525        C  0.26070540  0.95137354  0.63894983    -0.10200
C526        C  0.28324297  0.92358502  0.66575231    -0.12300
C527        C  0.59510085  0.59905864  0.36642264    -0.16000
C528        C  0.62291252  0.62717862  0.34416639     0.08100
C529        C  0.65367480  0.66199149  0.31789068     0.09900
C530        C  0.67905211  0.69178430  0.29489742    -0.16800
C531        C  0.80098255  0.82272545  0.18137515    -0.16000
C532        C  0.82633369  0.85003819  0.15567063     0.08100
C533        C  0.85543934  0.88255268  0.12518762     0.09900
C534        C  0.87972221  0.91138639  0.10001198    -0.16800
C535        C  0.64110056  0.68830819  0.07059466    -0.10800
C536        C  0.67417640  0.68815134  0.10003877    -0.12300
C537        C  0.68000374  0.92138247  0.34892850    -0.10800
C538        C  0.67392758  0.89467843  0.31426914    -0.12300
C539        C  0.12982987  0.62646134  0.30206163    -0.10800
C540        C  0.15610017  0.64803123  0.27369518    -0.12300
C541        C  0.84200654  0.42503527  0.26477177    -0.10800
C542        C  0.86524624  0.44977268  0.29344336    -0.12300
C543        C  0.87348820  0.72844999  0.34889699    -0.10800
C544        C  0.90406415  0.69831868  0.36289818    -0.12300
C545        C  0.30581769  0.32311770  0.27555816    -0.16000
C546        C  0.33425164  0.34811182  0.30079326     0.08100
C547        C  0.36607879  0.37822941  0.33160787     0.09900
C548        C  0.39236503  0.40289508  0.35922080    -0.16800
C549        C  0.09136213  0.12538995  0.07858294    -0.16000
C550        C  0.11098997  0.15773975  0.10361565     0.08100
C551        C  0.13521595  0.19337123  0.13484077     0.09900
C552        C  0.15923485  0.22092585  0.16146738    -0.16800
C553        C  0.37853754  0.19581067  0.08720805    -0.10800
C554        C  0.34784070  0.22168481  0.10696308    -0.12300
C555        C  0.20006048  0.15416077  0.34167454    -0.10800
C556        C  0.18115332  0.13118876  0.37432873    -0.12300
C557        C  0.08427156  0.37634348  0.34492136    -0.10800
C558        C  0.10866207  0.34814393  0.32021307    -0.12300
loop_ 
_geom_bond_atom_site_label_1 
_geom_bond_atom_site_label_2 
_geom_bond_distance 
_geom_bond_site_symmetry_2 
_ccdc_geom_bond_type 
C1            C3   1.524       .  S
C1            C5   1.531       .  S
C1            C4   1.533       .  S
C1          C552   1.493       .  S
C2            C6   1.534       .  S
C2            C8   1.541       .  S
C2            C7   1.526       .  S
C2          C545   1.503       .  S
C3           C11   1.374       .  A
C3            C6   1.416       .  A
C4           C15   1.385       .  A
C4            C7   1.411       .  A
C5           C19   1.372       .  A
C5            C8   1.416       .  A
C6            C9   1.381       .  A
C7           C13   1.370       .  A
C8           C16   1.383       .  A
C9           N10   1.348       .  A
C9           H22   1.083       .  S
N10          C11   1.339       .  A
N10         C554   1.391       .  S
C11          H12   1.084       .  S
C13          N14   1.343       .  A
C13          H23   1.083       .  S
N14          C15   1.351       .  A
N14         C558   1.394       .  S
C15          H21   1.082       .  S
C16          N17   1.351       .  A
C16          H18   1.083       .  S
N17          C19   1.342       .  A
N17         C555   1.394       .  S
C19          H20   1.083       .  S
N24          C29   1.352       .  A
N24          C28   1.354       .  A
N24          H56   1.039       .  S
N25          C32   1.347   1_655  A
N25          C33   1.343       .  A
N26          C31   1.352       .  A
N26          C30   1.353       .  A
N26          H57   1.040       .  S
N27          C34   1.343       .  A
N27          C35   1.348   1_455  A
C28          C36   1.391       .  A
C28          C44   1.418       .  A
C29          C45   1.408       .  A
C29          C37   1.386       .  A
C30          C38   1.385       .  A
C30          C47   1.407       .  A
C31          C46   1.414       .  A
C31          C39   1.390       .  A
C32          C44   1.405       .  A
C32          C40   1.388   1_455  A
C33          C47   1.400       .  A
C33          C41   1.386       .  A
C34          C42   1.386       .  A
C34          C45   1.399       .  A
C35          C43   1.387   1_655  A
C35          C46   1.405       .  A
C36          C37   1.369       .  A
C36          H48   1.080       .  S
C37          H49   1.083       .  S
C38          C39   1.370       .  A
C38          H50   1.082       .  S
C39          H51   1.079       .  S
C40          C41   1.372       .  A
C40          H52   1.083       .  S
C41          H53   1.083       .  S
C42          C43   1.373       .  A
C42          H54   1.083       .  S
C43          H55   1.082   1_455  S
C44         C557   1.443       .  S
C45         C539   1.436       .  S
C46         C544   1.443       .  S
C47         C542   1.440       .  S
C58          C60   1.534       .  S
C58          C62   1.525       .  S
C58          C61   1.539       .  S
C58         C530   1.492       .  S
C59          C63   1.532       .  S
C59          C65   1.530       .  S
C59          C64   1.542       .  S
C59         C531   1.493       .  S
C60          C68   1.379       .  A
C60          C63   1.411       .  A
C61          C72   1.380       .  A
C61          C64   1.423       .  A
C62          C76   1.368       .  A
C62          C65   1.388       .  A
C63          C66   1.380       .  A
C64          C70   1.379       .  A
C65          C73   1.377       .  A
C66          N67   1.348       .  A
C66          H79   1.083       .  S
N67          C68   1.349       .  A
N67         C536   1.396       .  S
C68          H69   1.083       .  S
C70          N71   1.347       .  A
C70          H80   1.084       .  S
N71          C72   1.349       .  A
N71         C538   1.396       .  S
C72          H78   1.084       .  S
C73          N74   1.358       .  A
C73          H75   1.083       .  S
N74          C76   1.355       .  A
N74         C543   1.395       .  S
C76          H77   1.083       .  S
N81          C86   1.348   1_545  A
N81          C85   1.353       .  A
N81         H113   1.039       .  S
N82          C89   1.342       .  A
N82          C90   1.344       .  A
N83          C88   1.353       .  A
N83          C87   1.347       .  A
N83         H114   1.038       .  S
N84          C91   1.346       .  A
N84          C92   1.344       .  A
C85          C93   1.387       .  A
C85         C101   1.410       .  A
C86         C102   1.411       .  A
C86          C94   1.389       .  A
C87          C95   1.389       .  A
C87         C104   1.411       .  A
C88         C103   1.411   1_545  A
C88          C96   1.387       .  A
C89         C101   1.398       .  A
C89          C97   1.385       .  A
C90         C104   1.403       .  A
C90          C98   1.388       .  A
C91          C99   1.388       .  A
C91         C102   1.404       .  A
C92         C100   1.388       .  A
C92         C103   1.406       .  A
C93          C94   1.373   1_545  A
C93         H105   1.082       .  S
C94         H106   1.081       .  S
C95          C96   1.378       .  A
C95         H107   1.083       .  S
C96         H108   1.082       .  S
C97          C98   1.375       .  A
C97         H109   1.083       .  S
C98         H110   1.082       .  S
C99         C100   1.375       .  A
C99         H111   1.083       .  S
C100        H112   1.083       .  S
C101        C556   1.438       .  S
C102        C522   1.433       .  S
C103        C525   1.443       .  S
C104        C523   1.432       .  S
N115        C120   1.344       .  A
N115        C119   1.350   1_545  A
N115        H147   1.033       .  S
N116        C123   1.345       .  A
N116        C124   1.347       .  A
N117        C122   1.347   1_565  A
N117        C121   1.339       .  A
N117        H148   1.032       .  S
N118        C125   1.344       .  A
N118        C126   1.344       .  A
C119        C127   1.390   1_565  A
C119        C135   1.415       .  A
C120        C136   1.408       .  A
C120        C128   1.386       .  A
C121        C129   1.385       .  A
C121        C138   1.400       .  A
C122        C137   1.408       .  A
C122        C130   1.390   1_545  A
C123        C135   1.411       .  A
C123        C131   1.389       .  A
C124        C138   1.404       .  A
C124        C132   1.384       .  A
C125        C133   1.388       .  A
C125        C136   1.405       .  A
C126        C134   1.387       .  A
C126        C137   1.406       .  A
C127        C128   1.382       .  A
C127        H139   1.082       .  S
C128        H140   1.083       .  S
C129        C130   1.383       .  A
C129        H141   1.083       .  S
C130        H142   1.082   1_565  S
C131        C132   1.378       .  A
C131        H143   1.083       .  S
C132        H144   1.082       .  S
C133        C134   1.377       .  A
C133        H145   1.082       .  S
C134        H146   1.083       .  S
C135        C537   1.440       .  S
C136        C516   1.431       .  S
C137        C519   1.433       .  S
C138        C518   1.430       .  S
C149        C151   1.528       .  S
C149        C153   1.532       .  S
C149        C152   1.538       .  S
C149        C503   1.494       .  S
C150        C154   1.535       .  S
C150        C156   1.544       .  S
C150        C155   1.531       .  S
C150        C507   1.497       .  S
C151        C159   1.379       .  A
C151        C154   1.406       .  A
C152        C163   1.374       .  A
C152        C155   1.412       .  A
C153        C167   1.372       .  A
C153        C156   1.417       .  A
C154        C157   1.377       .  A
C155        C161   1.378       .  A
C156        C164   1.388       .  A
C157        N158   1.348       .  A
C157        H170   1.084       .  S
N158        C159   1.349       .  A
N158        C511   1.394       .  S
C159        H160   1.083       .  S
C161        N162   1.348       .  A
C161        H171   1.084       .  S
N162        C163   1.346       .  A
N162        C513   1.390       .  S
C163        H169   1.084       .  S
C164        N165   1.354       .  A
C164        H166   1.084       .  S
N165        C167   1.342       .  A
N165        C526   1.397       .  S
C167        H168   1.085       .  S
N172        C177   1.351       .  A
N172        C176   1.343       .  A
N172        H204   1.037       .  S
N173        C180   1.344   1_655  A
N173        C181   1.342       .  A
N174        C179   1.341       .  A
N174        C178   1.348       .  A
N174        H205   1.037       .  S
N175        C182   1.339       .  A
N175        C183   1.343   1_455  A
C176        C184   1.386       .  A
C176        C192   1.406       .  A
C177        C193   1.414       .  A
C177        C185   1.390       .  A
C178        C186   1.390       .  A
C178        C195   1.409       .  A
C179        C194   1.402       .  A
C179        C187   1.385       .  A
C180        C192   1.405       .  A
C180        C188   1.388   1_455  A
C181        C195   1.405       .  A
C181        C189   1.387       .  A
C182        C190   1.388       .  A
C182        C193   1.405       .  A
C183        C191   1.387   1_655  A
C183        C194   1.404       .  A
C184        C185   1.384       .  A
C184        H196   1.083       .  S
C185        H197   1.082       .  S
C186        C187   1.381       .  A
C186        H198   1.082       .  S
C187        H199   1.083       .  S
C188        C189   1.381       .  A
C188        H200   1.082       .  S
C189        H201   1.083       .  S
C190        C191   1.384       .  A
C190        H202   1.083       .  S
C191        H203   1.082       .  S
C192        C514   1.431       .  S
C193        C498   1.440       .  S
C194        C501   1.431       .  S
C195        C500   1.436       .  S
C206        C208   1.537       .  S
C206        C210   1.541       .  S
C206        C209   1.538       .  S
C206        C494   1.499       .  S
C207        C211   1.528       .  S
C207        C213   1.537       .  S
C207        C212   1.523       .  S
C207        C490   1.491       .  S
C208        C216   1.378       .  A
C208        C211   1.409       .  A
C209        C220   1.384       .  A
C209        C212   1.406       .  A
C210        C224   1.385       .  A
C210        C213   1.420       .  A
C211        C214   1.372       .  A
C212        C218   1.370       .  A
C213        C221   1.375       .  A
C214        N215   1.346       .  A
C214        H227   1.084       .  S
N215        C216   1.350       .  A
N215        C520   1.390       .  S
C216        H217   1.083       .  S
C218        N219   1.342       .  A
C218        H228   1.084       .  S
N219        C220   1.353       .  A
N219        C502   1.392       .  S
C220        H226   1.083       .  S
C221        N222   1.345       .  A
C221        H223   1.085       .  S
N222        C224   1.350       .  A
N222        C495   1.397       .  S
C224        H225   1.084       .  S
N229        C234   1.349       .  A
N229        C233   1.351       .  A
N229        H261   1.040       .  S
N230        C237   1.341   1_556  A
N230        C238   1.345       .  A
N231        C236   1.350       .  A
N231        C235   1.350       .  A
N231        H262   1.038       .  S
N232        C239   1.348       .  A
N232        C240   1.343       .  A
C233        C241   1.389       .  A
C233        C249   1.410       .  A
C234        C250   1.406       .  A
C234        C242   1.386       .  A
C235        C243   1.388       .  A
C235        C252   1.412       .  A
C236        C251   1.411       .  A
C236        C244   1.389       .  A
C237        C249   1.400       .  A
C237        C245   1.386       .  A
C238        C252   1.405       .  A
C238        C246   1.388       .  A
C239        C247   1.386       .  A
C239        C250   1.405   1_556  A
C240        C248   1.389       .  A
C240        C251   1.407       .  A
C241        C242   1.375       .  A
C241        H253   1.082       .  S
C242        H254   1.083       .  S
C243        C244   1.376       .  A
C243        H255   1.082       .  S
C244        H256   1.082       .  S
C245        C246   1.378   1_554  A
C245        H257   1.083       .  S
C246        H258   1.082       .  S
C247        C248   1.377       .  A
C247        H259   1.082       .  S
C248        H260   1.083       .  S
C249        C485   1.435       .  S
C250        C535   1.441       .  S
C251        C484   1.434       .  S
C252        C512   1.439       .  S
N263        C268   1.349       .  A
N263        C267   1.346       .  A
N263        H295   1.039       .  S
N264        C271   1.349       .  A
N264        C272   1.347   1_554  A
N265        C270   1.352       .  A
N265        C269   1.353       .  A
N265        H296   1.037       .  S
N266        C273   1.344   1_556  A
N266        C274   1.345       .  A
C267        C275   1.387       .  A
C267        C283   1.399       .  A
C268        C284   1.404       .  A
C268        C276   1.389       .  A
C269        C277   1.389       .  A
C269        C286   1.415       .  A
C270        C285   1.414       .  A
C270        C278   1.387       .  A
C271        C283   1.407       .  A
C271        C279   1.386       .  A
C272        C286   1.409       .  A
C272        C280   1.387       .  A
C273        C281   1.384   1_554  A
C273        C284   1.398       .  A
C274        C282   1.391       .  A
C274        C285   1.409       .  A
C275        C276   1.370       .  A
C275        H287   1.083       .  S
C276        H288   1.083       .  S
C277        C278   1.376       .  A
C277        H289   1.082       .  S
C278        H290   1.082       .  S
C279        C280   1.374   1_554  A
C279        H291   1.083       .  S
C280        H292   1.082       .  S
C281        C282   1.373       .  A
C281        H293   1.083   1_556  S
C282        H294   1.082       .  S
C283        C481   1.431       .  S
C284        C553   1.432       .  S
C285        C480   1.440       .  S
C286        C496   1.444       .  S
C297        C299   1.535       .  S
C297        C301   1.537       .  S
C297        C300   1.544       .  S
C297        C475   1.507       .  S
C298        C302   1.531       .  S
C298        C304   1.530       .  S
C298        C303   1.528       .  S
C298        C474   1.495       .  S
C299        C307   1.381       .  A
C299        C302   1.410       .  A
C300        C311   1.383       .  A
C300        C303   1.418       .  A
C301        C315   1.381       .  A
C301        C304   1.414       .  A
C302        C305   1.369       .  A
C303        C309   1.370       .  A
C304        C312   1.375       .  A
C305        N306   1.344       .  A
C305        H318   1.085       .  S
N306        C307   1.351       .  A
N306        C483   1.389       .  S
C307        H308   1.083       .  S
C309        N310   1.341       .  A
C309        H319   1.085       .  S
N310        C311   1.352       .  A
N310        C517   1.391       .  S
C311        H317   1.084       .  S
C312        N313   1.344       .  A
C312        H314   1.084       .  S
N313        C315   1.348       .  A
N313        C499   1.393       .  S
C315        H316   1.084       .  S
C320        C322   1.533       .  S
C320        C324   1.524       .  S
C320        C323   1.547       .  S
C320        C466   1.507       .  S
C321        C325   1.540       .  S
C321        C327   1.529       .  S
C321        C326   1.530       .  S
C321        C470   1.508       .  S
C322        C330   1.379       .  A
C322        C325   1.418       .  A
C323        C334   1.387       .  A
C323        C326   1.424       .  A
C324        C338   1.370       .  A
C324        C327   1.403       .  A
C325        C328   1.370       .  A
C326        C332   1.371       .  A
C327        C335   1.378       .  A
C328        N329   1.344       .  A
C328        H341   1.084       .  S
N329        C330   1.349       .  A
N329        C515   1.389       .  S
C330        H331   1.083       .  S
C332        N333   1.341       .  A
C332        H342   1.085       .  S
N333        C334   1.353       .  A
N333        C541   1.395       .  S
C334        H340   1.084       .  S
C335        N336   1.351       .  A
C335        H337   1.083       .  S
N336        C338   1.341       .  A
N336        C482   1.388       .  S
C338        H339   1.084       .  S
C343        C345   1.524       .  S
C343        C347   1.534       .  S
C343        C346   1.536       .  S
C343        C455   1.493       .  S
C344        C348   1.536       .  S
C344        C350   1.531       .  S
C344        C349   1.543       .  S
C344        C462   1.499       .  S
C345        C353   1.376       .  A
C345        C348   1.405       .  A
C346        C357   1.374       .  A
C346        C349   1.422       .  A
C347        C361   1.374       .  A
C347        C350   1.407       .  A
C348        C351   1.379       .  A
C349        C355   1.387       .  A
C350        C358   1.373       .  A
C351        N352   1.350       .  A
C351        H364   1.083       .  S
N352        C353   1.347       .  A
N352        C479   1.394       .  S
C353        H354   1.083       .  S
C355        N356   1.352       .  A
C355        H365   1.084       .  S
N356        C357   1.342       .  A
N356        C497   1.397       .  S
C357        H363   1.085       .  S
C358        N359   1.349       .  A
C358        H360   1.083       .  S
N359        C361   1.349       .  A
N359        C524   1.389       .  S
C361        H362   1.083       .  S
C366        C368   1.527       .  S
C366        C370   1.519       .  S
C366        C369   1.535       .  S
C366        C451   1.488       .  S
C367        C371   1.544       .  S
C367        C373   1.522       .  S
C367        C372   1.540       .  S
C367        C447   1.498       .  S
C368        C376   1.372       .  A
C368        C371   1.424       .  A
C369        C380   1.368       .  A
C369        C372   1.420       .  A
C370        C384   1.370       .  A
C370        C373   1.385       .  A
C371        C374   1.384       .  A
C372        C378   1.385       .  A
C373        C381   1.370       .  A
C374        N375   1.349       .  A
C374        H387   1.083       .  S
N375        C376   1.342       .  A
N375        C486   1.393       .  S
C376        H377   1.084       .  S
C378        N379   1.351       .  A
C378        H388   1.083       .  S
N379        C380   1.339       .  A
N379        C540   1.391       .  S
C380        H386   1.084       .  S
C381        N382   1.353       .  A
C381        H383   1.083       .  S
N382        C384   1.352       .  A
N382        C521   1.388       .  S
C384        H385   1.083       .  S
O389        C397   1.257       .  A
O389       Co409   1.990   1_455  S
O390        C398   1.274       .  A
O390       Co410   1.907       .  S
O391        C399   1.266       .  A
O391       Co411   2.025   1_545  S
O392        C400   1.308       .  A
O392       Co412   2.124   1_554  S
O393        C399   1.262       .  A
O393       Co410   2.004   1_455  S
O394        C400   1.273       .  A
O394       Co409   1.912       .  S
O395        C398   1.301       .  A
O395       Co412   2.091       .  S
O396        C397   1.267       .  A
O396       Co411   2.031   1_544  S
C397        C549   1.454       .  S
C398        C487   1.452       .  S
C399        C459   1.462       .  S
C400        C463   1.471       .  S
O401        C414   1.249       .  A
O401       Co409   1.981   1_565  S
O402        C415   1.276       .  A
O402       Co410   2.037   1_465  S
O403        C416   1.263       .  A
O403       Co411   1.984   1_554  S
O404        C417   1.261       .  A
O404       Co412   2.033   1_565  S
O405        C417   1.250       .  A
O405       Co410   1.987   1_565  S
O406        C416   1.277       .  A
O406       Co409   2.044   1_465  S
O407        C414   1.257       .  A
O407       Co412   2.016   1_564  S
O408        C415   1.264       .  A
O408       Co411   1.983       .  S
Co409       O413   1.957   1_544  S
Co410       O413   1.963   1_545  S
Co411       O413   2.114   1_455  S
Co412       O413   2.265   1_545  S
C414        C534   1.457       .  S
C415        C506   1.456       .  S
C416        C450   1.461       .  S
C417        C478   1.471       .  S
O418        C426   1.277       .  A
O418       Co438   2.039       .  S
O419        C427   1.250       .  A
O419       Co439   1.989       .  S
O420        C428   1.266       .  A
O420       Co440   1.992       .  S
O421        C429   1.252       .  A
O421       Co441   1.998       .  S
O422        C428   1.272       .  A
O422       Co439   2.024       .  S
O423        C429   1.251       .  A
O423       Co438   1.989       .  S
O424        C427   1.256       .  A
O424       Co441   2.017       .  S
O425        C426   1.268       .  A
O425       Co440   1.997       .  S
C426        C548   1.467       .  S
C427        C510   1.460       .  S
C428        C458   1.455       .  S
C429        C454   1.450       .  S
O430        C443   1.276       .  A
O430       Co438   1.916       .  S
O431        C444   1.259       .  A
O431       Co439   1.997       .  S
O432        C445   1.267       .  A
O432       Co440   2.033       .  S
O433        C446   1.300       .  A
O433       Co441   2.084       .  S
O434        C446   1.273       .  A
O434       Co439   1.917       .  S
O435        C445   1.262       .  A
O435       Co438   2.006       .  S
O436        C443   1.301       .  A
O436       Co441   2.082       .  S
O437        C444   1.269       .  A
O437       Co440   2.034       .  S
Co438       O442   1.956       .  S
Co439       O442   1.954       .  S
Co440       O442   2.116       .  S
Co441       O442   2.276       .  S
C443        C527   1.454       .  S
C444        C491   1.462       .  S
C445        C467   1.469       .  S
C446        C471   1.455       .  S
C447        C448   1.222       .  T
C448        C449   1.438       .  S
C449        C450   1.222       .  T
C451        C452   1.215       .  T
C452        C453   1.427       .  S
C453        C454   1.215       .  T
C455        C456   1.217       .  T
C456        C457   1.431       .  S
C457        C458   1.217       .  T
C459        C460   1.222       .  T
C460        C461   1.438       .  S
C461        C462   1.222       .  T
C463        C464   1.227       .  T
C464        C465   1.446       .  S
C465        C466   1.227       .  T
C467        C468   1.226       .  T
C468        C469   1.445       .  S
C469        C470   1.226       .  T
C471        C472   1.217       .  T
C472        C473   1.431       .  S
C473        C474   1.218       .  T
C475        C476   1.226       .  T
C476        C477   1.446       .  S
C477        C478   1.227       .  T
C479        C480   1.199       .  T
C481        C482   1.195       .  T
C483        C484   1.196       .  T
C485        C486   1.198       .  T
C487        C488   1.216       .  T
C488        C489   1.428       .  S
C489        C490   1.216       .  T
C491        C492   1.222       .  T
C492        C493   1.438       .  S
C493        C494   1.222       .  T
C495        C496   1.202       .  T
C497        C498   1.202       .  T
C499        C500   1.198       .  T
C501        C502   1.197       .  T
C503        C504   1.218       .  T
C504        C505   1.432       .  S
C505        C506   1.218       .  T
C507        C508   1.221       .  T
C508        C509   1.436       .  S
C509        C510   1.221       .  T
C511        C512   1.200       .  T
C513        C514   1.196       .  T
C515        C516   1.195       .  T
C517        C518   1.197       .  T
C519        C520   1.196       .  T
C521        C522   1.195       .  T
C523        C524   1.195       .  T
C525        C526   1.202       .  T
C527        C528   1.217       .  T
C528        C529   1.431       .  S
C529        C530   1.218       .  T
C531        C532   1.218       .  T
C532        C533   1.433       .  S
C533        C534   1.219       .  T
C535        C536   1.201       .  T
C537        C538   1.201       .  T
C539        C540   1.197       .  T
C541        C542   1.200       .  T
C543        C544   1.200       .  T
C545        C546   1.224       .  T
C546        C547   1.443       .  S
C547        C548   1.225       .  T
C549        C550   1.218       .  T
C550        C551   1.431       .  S
C551        C552   1.218       .  T
C553        C554   1.196       .  T
C555        C556   1.200       .  T
C557        C558   1.200       .  T
