geometry optimzed in LAMMPS
_audit_creation_date              2020-12-01 
_audit_creation_method            'lammps2cif' 
_symmetry_space_group_name_H-M    'P1' 
_symmetry_Int_Tables_number       1 
_symmetry_cell_setting            triclinic 
loop_ 
_symmetry_equiv_pos_as_xyz 
  x,y,z 
_cell_length_a                    45.82693953 
_cell_length_b                    46.064859178867756 
_cell_length_c                    32.86897963354195 
_cell_angle_alpha                 89.17421445286325 
_cell_angle_beta                  90.15766801820644 
_cell_angle_gamma                 120.93968514113814 
loop_ 
_atom_site_label 
_atom_site_type_symbol 
_atom_site_fract_x 
_atom_site_fract_y 
_atom_site_fract_z 
_atom_site_charge 
O1          O  0.12631632  0.61165502  0.31866075    -0.57500
C2          C  0.20262167  0.68582485  0.35295937     0.75100
O3          O  0.16017796  0.58026025  0.41077916    -0.58600
C4          C  0.10725286  0.58002848  0.32372322     0.75100
C5          C  0.22379679  0.60397589  0.29481886     0.77500
Cd6        Cd  0.17805042  0.61509684  0.34633043     1.37500
O7          O  0.17928736  0.66380897  0.37558066    -0.57500
O8          O  0.20303789  0.61147500  0.27970925    -0.56300
C9          C  0.18033241  0.60452960  0.43332292     0.77500
O10         O  0.22259624  0.60046691  0.33319146    -0.58700
O11         O  0.21202109  0.67497436  0.32356477    -0.57100
O12         O  0.12153797  0.56428903  0.33630227    -0.57100
O13         O  0.20165487  0.63159173  0.41509644    -0.56300
O14         O  0.18751033  0.64237514  0.82804609    -0.57500
C15         C  0.17444476  0.62834221  0.67328786     0.75100
O16         O  0.18239467  0.57497334  0.72956929    -0.58600
C17         C  0.21324127  0.66981088  0.81600459     0.75100
C18         C  0.10154472  0.59132700  0.78445716     0.77500
Cd19       Cd  0.17062022  0.61589631  0.76024003     1.37500
O20         O  0.19610643  0.65087481  0.69672178    -0.57500
O21         O  0.12089623  0.62168158  0.77268983    -0.56300
C22         C  0.19926984  0.57280134  0.75846632     0.77500
O23         O  0.11427723  0.57257334  0.78535958    -0.58700
O24         O  0.14976026  0.60282399  0.69046423    -0.57100
O25         O  0.21886791  0.67286057  0.77791305    -0.57100
O26         O  0.19967685  0.58743989  0.79089852    -0.56300
O27         O  0.88048978  0.45943647  0.82519392    -0.57500
C28         C  0.78883162  0.38744320  0.87780559     0.75100
O29         O  0.83999006  0.48571096  0.93013947    -0.58600
C30         C  0.90248920  0.49011005  0.83208172     0.75100
C31         C  0.79464603  0.47731146  0.81068686     0.77500
Cd32       Cd  0.83410555  0.45842021  0.86287800     1.37500
O33         O  0.81225928  0.39676209  0.85136500    -0.57500
O34         O  0.80847006  0.46145150  0.79780350    -0.56300
C35         C  0.84906474  0.46711181  0.94849205     0.77500
O36         O  0.79970866  0.48555950  0.84784353    -0.58700
O37         O  0.78541460  0.41045299  0.89338648    -0.57100
O38         O  0.89231447  0.50685231  0.85150321    -0.57100
O39         O  0.85302866  0.44699649  0.92671875    -0.56300
O40         O  0.80352678  0.36034249  0.28688181    -0.57500
C41         C  0.84884527  0.42819215  0.18586955     0.75100
O42         O  0.80964585  0.45438877  0.29658415    -0.58600
C43         C  0.80079759  0.36277862  0.32493983     0.75100
C44         C  0.90684687  0.45923613  0.29818732     0.77500
Cd45       Cd  0.83713752  0.42252888  0.27266760     1.37500
O46         O  0.83950366  0.40035530  0.20456668    -0.57500
O47         O  0.89169273  0.42842410  0.28828531    -0.56300
C48         C  0.78740562  0.44240176  0.26870037     0.77500
O49         O  0.88926609  0.47335160  0.29792131    -0.58700
O50         O  0.85423706  0.45287415  0.20763507    -0.57100
O51         O  0.81607572  0.39249381  0.33880680    -0.57100
O52         O  0.78830923  0.42159625  0.24495641    -0.56300
O53         O  0.44317080  0.67300002  0.65694580    -0.57500
C54         C  0.43442796  0.62989792  0.75985902     0.75100
O55         O  0.37344870  0.56649538  0.70259986    -0.58600
C56         C  0.43797306  0.66820944  0.61910318     0.75100
C57         C  0.46267245  0.58041073  0.65155095     0.77500
Cd58       Cd  0.42629730  0.61366483  0.67430091     1.37500
O59         O  0.46049515  0.63877773  0.73787410    -0.57500
O60         O  0.47806306  0.61090156  0.66265021    -0.56300
C61         C  0.35407345  0.56987873  0.67801026     0.77500
O62         O  0.43056512  0.56543605  0.65073864    -0.58700
O63         O  0.40635454  0.61656616  0.74154093    -0.57100
O64         O  0.42883039  0.63883340  0.60698324    -0.57100
O65         O  0.36821986  0.59044937  0.64848169    -0.56300
O66         O  0.34820910  0.59082995  0.09435964    -0.57500
C67         C  0.40344453  0.60082254  0.99927450     0.75100
O68         O  0.43025031  0.65153285  0.12496611    -0.58600
C69         C  0.34882445  0.59255469  0.13290826     0.75100
C70         C  0.42537806  0.55021839  0.11196939     0.77500
Cd71       Cd  0.40647265  0.59892627  0.08723976     1.37500
O72         O  0.37683232  0.59057305  0.02079195    -0.57500
O73         O  0.39635447  0.54061237  0.09703367    -0.56300
C74         C  0.45029773  0.67037219  0.09714300     0.77500
O75         O  0.44461436  0.58172628  0.11673508    -0.58700
O76         O  0.43021988  0.60780310  0.01831204    -0.57100
O77         O  0.37468479  0.59475293  0.14996152    -0.57100
O78         O  0.45422483  0.65558156  0.06751612    -0.56300
O79         O  0.67976233  0.49308728  0.60079118    -0.57500
C80         C  0.60871436  0.47411912  0.50235912     0.75100
O81         O  0.58030874  0.41547926  0.61691746    -0.58600
C82         C  0.67679012  0.48902703  0.63919217     0.75100
C83         C  0.58716125  0.51126483  0.60897645     0.77500
Cd84       Cd  0.61865031  0.47351562  0.58856167     1.37500
O85         O  0.63819969  0.49343196  0.51714437    -0.57500
O86         O  0.61747798  0.52600907  0.59561813    -0.56300
C87         C  0.58904724  0.40221233  0.58951365     0.77500
O88         O  0.57263246  0.47960695  0.61539459    -0.58700
O89         O  0.58507037  0.45660882  0.52753864    -0.57100
O90         O  0.64804901  0.48082842  0.65402527    -0.57100
O91         O  0.61142056  0.42201159  0.56425673    -0.56300
O92         O  0.52101363  0.34718504  0.17275200    -0.57500
C93         C  0.54761043  0.41996465  0.27422010     0.75100
O94         O  0.59733948  0.40813402  0.21619662    -0.58600
C95         C  0.52811048  0.35264361  0.13500347     0.75100
C96         C  0.52070756  0.44934051  0.16062290     0.77500
Cd97       Cd  0.54938541  0.40975102  0.18859808     1.37500
O98         O  0.52540260  0.39159251  0.25945750    -0.57500
O99         O  0.50206807  0.42028786  0.17677691    -0.56300
C100        C  0.62014303  0.43173035  0.19447530     0.77500
O101        O  0.55187727  0.45900004  0.15591722    -0.58700
O102        O  0.56771588  0.44241278  0.24918834    -0.57100
O103        O  0.54250209  0.38320972  0.12322840    -0.57100
O104        O  0.61031425  0.44461036  0.16724681    -0.56300
O105        O  0.36538271  0.86311167  0.44206905    -0.57500
C106        C  0.45473124  0.93048771  0.48571871     0.75100
O107        O  0.43133016  0.81682990  0.46432858    -0.58600
C108        C  0.34541720  0.83518120  0.45962249     0.75100
C109        C  0.41875510  0.86233608  0.36935219     0.77500
Cd110      Cd  0.41688328  0.86225490  0.45725238     1.37500
O111        O  0.42435866  0.91035478  0.49712058    -0.57500
O112        O  0.39327108  0.84124382  0.39009596    -0.56300
C113        C  0.43574467  0.81975388  0.50245464     0.77500
O114        O  0.44558207  0.88149529  0.38915745    -0.58700
O115        O  0.46758469  0.91875746  0.46172565    -0.57100
O116        O  0.35873225  0.82264991  0.48223876    -0.57100
O117        O  0.43258871  0.84268044  0.51869503    -0.56300
O118        O  0.35193788  0.81056241  0.98752762    -0.57500
C119        C  0.37264361  0.85769411  0.13459685     0.75100
O120        O  0.41967126  0.82962847  0.04402139    -0.58600
C121        C  0.32060790  0.79460874  0.99651139     0.75100
C122        C  0.40511044  0.90867378  0.01239971     0.77500
Cd123      Cd  0.37347251  0.84266203  0.05017393     1.37500
O124        O  0.34469853  0.84005778  0.11586317    -0.57500
O125        O  0.37444866  0.89379655  0.02458396    -0.56300
C126        C  0.40778370  0.80797506  0.07290161     0.77500
O127        O  0.42024014  0.89222914  0.01576804    -0.58700
O128        O  0.39935727  0.87122642  0.11303460    -0.57100
O129        O  0.31281648  0.80112679  0.03082769    -0.57100
O130        O  0.37973676  0.80143832  0.08811013    -0.56300
O131        O  0.67622256  0.23669539  0.53417994    -0.57500
C132        C  0.61202501  0.19325296  0.63332990     0.75100
O133        O  0.57927622  0.21781893  0.51043255    -0.58600
C134        C  0.67457245  0.23771541  0.49569375     0.75100
C135        C  0.57898290  0.12692958  0.52492330     0.77500
Cd136      Cd  0.61387285  0.19716640  0.54563418     1.37500
O137        O  0.64009329  0.20410006  0.61458870    -0.57500
O138        O  0.61059250  0.14320202  0.53209636    -0.56300
C139        C  0.58300354  0.23724857  0.53946090     0.77500
O140        O  0.56376402  0.14328668  0.52652383    -0.58700
O141        O  0.58585294  0.18245392  0.61144066    -0.57100
O142        O  0.64536617  0.21926623  0.48053559    -0.57100
O143        O  0.60063404  0.23769979  0.56918579    -0.56300
O144        O  0.55756856  0.12625754  0.98520723    -0.57500
C145        C  0.63417825  0.22237838  0.96650194     0.75100
O146        O  0.53806641  0.17901526  0.88733245    -0.58600
C147        C  0.52739155  0.10659033  0.97327764     0.75100
C148        C  0.53621768  0.21154458  0.00717382     0.77500
Cd149      Cd  0.56222505  0.17860887  0.95619539     1.37500
O150        O  0.62248763  0.19549476  0.94632356    -0.57500
O151        O  0.54280551  0.18973079  0.02095508    -0.56300
C152        C  0.56520309  0.18614275  0.86852604     0.77500
O153        O  0.53995921  0.21713608  0.96903188    -0.58700
O154        O  0.61281140  0.22599575  0.98669692    -0.57100
O155        O  0.51334182  0.12036113  0.95468721    -0.57100
O156        O  0.58982036  0.19072671  0.89031573    -0.56300
C157        C  0.56850298  0.18807244  0.82362868    -0.04900
C158        C  0.53988401  0.17680829  0.79868567    -0.04800
C159        C  0.54289178  0.17573322  0.75645141    -0.23000
C160        C  0.57457508  0.18589330  0.73849593     0.19200
C161        C  0.60368205  0.19801666  0.76319055     0.16400
C162        C  0.60047722  0.19912231  0.80550949    -0.18000
C163        C  0.63538928  0.20834227  0.74517576    -0.19900
C164        C  0.63819540  0.20642003  0.70301217    -0.12400
C165        C  0.60933886  0.19406066  0.67819408     0.04200
C166        C  0.57758556  0.18394876  0.69629068    -0.24600
H167        H  0.51504581  0.16805628  0.81190243     0.09300
H168        H  0.52033606  0.16648072  0.73787150     0.12900
H169        H  0.62283576  0.20798070  0.82440332     0.12900
H170        H  0.65800442  0.21784537  0.76370479     0.12600
H171        H  0.66294312  0.21472748  0.68980966     0.13200
H172        H  0.55512927  0.17471459  0.67750364     0.15100
C173        C  0.50954182  0.06950472  0.97997872    -0.04900
C174        C  0.52779811  0.05383058  0.99134867    -0.04800
C175        C  0.51114411  0.01871274  0.99670045    -0.23000
C176        C  0.47582615  0.99870974  0.99156425     0.19200
C177        C  0.45715965  0.01418810  0.98020573     0.16400
C178        C  0.47418457  0.04941785  0.97405074    -0.18000
C179        C  0.42169654  0.99424608  0.97620119    -0.19900
C180        C  0.40472799  0.95954304  0.98517436    -0.12400
C181        C  0.42302319  0.94409941  0.99735083     0.04200
C182        C  0.45871760  0.96368750  0.99916162    -0.24600
H183        H  0.55505599  0.06872631  0.99574814     0.09300
H184        H  0.52582803  0.00725441  0.00549475     0.12900
H185        H  0.45981881  0.06125523  0.96536402     0.12900
H186        H  0.40697915  0.00566702  0.96741053     0.12600
H187        H  0.37722969  0.94489952  0.98345723     0.13200
H188        H  0.47305829  0.95204572  0.00879921     0.15100
C189        C  0.47396870  0.96602697  0.49886583    -0.04900
C190        C  0.45808019  0.97941903  0.52214895    -0.04800
C191        C  0.47555688  0.01367812  0.53206184    -0.23000
C192        C  0.50926885  0.03502603  0.51907411     0.19200
C193        C  0.52581490  0.02152056  0.49679993     0.16400
C194        C  0.50803991  0.98718578  0.48675109    -0.18000
C195        C  0.55978724  0.04266028  0.48462387    -0.19900
C196        C  0.57721219  0.07694659  0.49425759    -0.12400
C197        C  0.56070995  0.09070653  0.51543016     0.04200
C198        C  0.52670303  0.06965765  0.52777385    -0.24600
H199        H  0.43189225  0.96355459  0.53199751     0.09300
H200        H  0.46259729  0.02354068  0.54950827     0.12900
H201        H  0.52063508  0.97705810  0.46904639     0.12900
H202        H  0.57286952  0.03268501  0.46764232     0.12600
H203        H  0.60343074  0.09288499  0.48453291     0.13200
H204        H  0.51401631  0.08016786  0.54458589     0.15100
C205        C  0.41619156  0.86525953  0.32471468    -0.04900
C206        C  0.44534677  0.88458391  0.30057211    -0.04800
C207        C  0.44241585  0.88852718  0.25872578    -0.23000
C208        C  0.41024014  0.87351973  0.24040528     0.19200
C209        C  0.38071705  0.85451387  0.26449849     0.16400
C210        C  0.38388465  0.85036200  0.30637749    -0.18000
C211        C  0.34854941  0.83964664  0.24618754    -0.19900
C212        C  0.34568616  0.84231854  0.20405471    -0.12400
C213        C  0.37491602  0.86013512  0.17956518     0.04200
C214        C  0.40713749  0.87644396  0.19824756    -0.24600
H215        H  0.47041504  0.89661119  0.31405391     0.09300
H216        H  0.46532202  0.90325124  0.24066920     0.12900
H217        H  0.36112558  0.83582723  0.32476530     0.12900
H218        H  0.32563117  0.82515606  0.26428359     0.12600
H219        H  0.32065060  0.82936407  0.19046659     0.13200
H220        H  0.42996838  0.89015565  0.17977822     0.15100
C221        C  0.52208028  0.32580311  0.10564797    -0.04900
C222        C  0.52706528  0.33408391  0.06385918    -0.04800
C223        C  0.52780517  0.31200296  0.03581209    -0.23000
C224        C  0.52377994  0.28108899  0.04884102     0.19200
C225        C  0.51694058  0.27147620  0.09040690     0.16400
C226        C  0.51573234  0.29374557  0.11858592    -0.18000
C227        C  0.51322798  0.24055414  0.10324273    -0.19900
C228        C  0.51813011  0.22042042  0.07575699    -0.12400
C229        C  0.52635281  0.23048771  0.03471168     0.04200
C230        C  0.52807424  0.26044362  0.02126499    -0.24600
H231        H  0.53174621  0.35840404  0.05288437     0.09300
H232        H  0.53283807  0.31972980  0.00407147     0.12900
H233        H  0.51193835  0.28700710  0.15067369     0.12900
H234        H  0.50775421  0.23250981  0.13484723     0.12600
H235        H  0.51639220  0.19734447  0.08691450     0.13200
H236        H  0.53448495  0.26860592  0.98977820     0.15100
C237        C  0.56973393  0.26014214  0.53904241    -0.04900
C238        C  0.57170699  0.27814592  0.50344267    -0.04800
C239        C  0.57077456  0.30789371  0.50587240    -0.23000
C240        C  0.56807775  0.31976952  0.54395125     0.19200
C241        C  0.56247868  0.29979719  0.57935078     0.16400
C242        C  0.56268473  0.26967966  0.57646761    -0.18000
C243        C  0.56013976  0.31187821  0.61747416    -0.19900
C244        C  0.56640495  0.34481810  0.62089881    -0.12400
C245        C  0.57481358  0.36567047  0.58619554     0.04200
C246        C  0.57387421  0.35246589  0.54764048    -0.24600
H247        H  0.57715782  0.27103749  0.47442795     0.09300
H248        H  0.57472847  0.32285054  0.47845907     0.12900
H249        H  0.56083567  0.25547699  0.60393793     0.12900
H250        H  0.55560301  0.29669129  0.64482154     0.12600
H251        H  0.56692068  0.35468632  0.65077560     0.13200
H252        H  0.57994189  0.36849160  0.52071714     0.15100
C253        C  0.60167857  0.47072448  0.45812379    -0.04900
C254        C  0.62728940  0.49067270  0.42969091    -0.04800
C255        C  0.62095041  0.48557600  0.38798006    -0.23000
C256        C  0.58903141  0.46011955  0.37404571     0.19200
C257        C  0.56291206  0.44012248  0.40227056     0.16400
C258        C  0.56928013  0.44583044  0.44407306    -0.18000
C259        C  0.53124723  0.41412288  0.38820195    -0.19900
C260        C  0.52584377  0.40740778  0.34651598    -0.12400
C261        C  0.55176754  0.42709291  0.31829834     0.04200
C262        C  0.58313583  0.45376045  0.33237677    -0.24600
H263        H  0.65235620  0.50990335  0.43970794     0.09300
H264        H  0.64125003  0.50107380  0.36662084     0.12900
H265        H  0.54927390  0.43011133  0.46567458     0.12900
H266        H  0.51092264  0.39854560  0.40949136     0.12600
H267        H  0.50151084  0.38685889  0.33635549     0.13200
H268        H  0.60350065  0.46896820  0.31092679     0.15100
C269        C  0.46341033  0.70703999  0.09611321    -0.04900
C270        C  0.47768489  0.72565693  0.05989279    -0.04800
C271        C  0.47509574  0.75398383  0.05067874    -0.23000
C272        C  0.45745188  0.76329606  0.07714783     0.19200
C273        C  0.44691181  0.74711275  0.11573690     0.16400
C274        C  0.45150510  0.72014176  0.12568694    -0.18000
C275        C  0.42814491  0.75519988  0.14178635    -0.19900
C276        C  0.41683301  0.77641918  0.12812542    -0.12400
C277        C  0.42498618  0.79067736  0.08872602     0.04200
C278        C  0.44709598  0.78580274  0.06422233    -0.24600
H279        H  0.48744077  0.71626891  0.03680132     0.09300
H280        H  0.48383781  0.76639673  0.02124216     0.12900
H281        H  0.44087908  0.70621723  0.15396903     0.12900
H282        H  0.42008152  0.74319725  0.17153890     0.12600
H283        H  0.40050044  0.78062313  0.14786623     0.13200
H284        H  0.45360714  0.79695872  0.03390215     0.15100
C285        C  0.43692919  0.52636431  0.12224276    -0.04900
C286        C  0.41360503  0.49181937  0.12960487    -0.04800
C287        C  0.42510315  0.46954455  0.13873877    -0.23000
C288        C  0.46012687  0.48137458  0.13976855     0.19200
C289        C  0.48363451  0.51598710  0.13155097     0.16400
C290        C  0.47193274  0.53823887  0.12347069    -0.18000
C291        C  0.51855875  0.52787255  0.13131277    -0.19900
C292        C  0.53025171  0.50582669  0.13969149    -0.12400
C293        C  0.50734334  0.47152781  0.14901983     0.04200
C294        C  0.47214030  0.45935413  0.14884991    -0.24600
H295        H  0.38649865  0.48212071  0.12865873     0.09300
H296        H  0.40664691  0.44309153  0.14473595     0.12900
H297        H  0.49013250  0.56475644  0.11726961     0.12900
H298        H  0.53687622  0.55427834  0.12478082     0.12600
H299        H  0.55743489  0.51587556  0.13970356     0.13200
H300        H  0.45420638  0.43292288  0.15581502     0.15100
C301        C  0.44296345  0.79712343  0.52736426    -0.04900
C302        C  0.45295777  0.80505097  0.56813284    -0.04800
C303        C  0.45622303  0.78232037  0.59352184    -0.23000
C304        C  0.44915087  0.75098453  0.57877525     0.19200
C305        C  0.44010876  0.74311355  0.53748640     0.16400
C306        C  0.43741511  0.76637969  0.51190419    -0.18000
C307        C  0.43273269  0.71160404  0.52291023    -0.19900
C308        C  0.43313392  0.68771311  0.54926635    -0.12400
C309        C  0.44109731  0.69490815  0.59064769     0.04200
C310        C  0.44981191  0.72696521  0.60499309    -0.24600
H311        H  0.45757875  0.82864600  0.58071662     0.09300
H312        H  0.46334964  0.78887116  0.62499999     0.12900
H313        H  0.42957800  0.75992807  0.48057103     0.12900
H314        H  0.42582128  0.70510335  0.49137653     0.12600
H315        H  0.42637582  0.66322749  0.53740536     0.13200
H316        H  0.45599572  0.73283608  0.63681439     0.15100
C317        C  0.48107748  0.56301549  0.64085627    -0.04900
C318        C  0.46313718  0.52772711  0.63626518    -0.04800
C319        C  0.48042722  0.51072653  0.62870898    -0.23000
C320        C  0.51597876  0.52877954  0.62534279     0.19200
C321        C  0.53425466  0.56442149  0.62848087     0.16400
C322        C  0.51669673  0.58132577  0.63638027    -0.18000
C323        C  0.56979664  0.58244686  0.62416418    -0.19900
C324        C  0.58709102  0.56521537  0.61760463    -0.12400
C325        C  0.56917154  0.52971699  0.61579476     0.04200
C326        C  0.53353376  0.51168901  0.61927793    -0.24600
H327        H  0.43569820  0.51311319  0.63941091     0.09300
H328        H  0.46603325  0.48343674  0.62601255     0.12900
H329        H  0.53074585  0.60859727  0.63944540     0.12900
H330        H  0.58420099  0.60978821  0.62609837     0.12600
H331        H  0.61453524  0.57962620  0.61447623     0.13200
H332        H  0.51941212  0.48434312  0.61708406     0.15100
C333        C  0.43558269  0.63248698  0.80477461    -0.04900
C334        C  0.46635211  0.64557308  0.82602978    -0.04800
C335        C  0.46632765  0.64298310  0.86857789    -0.23000
C336        C  0.43548959  0.62692309  0.89045534     0.19200
C337        C  0.40455902  0.61487483  0.86939907     0.16400
C338        C  0.40484788  0.61809078  0.82690402    -0.18000
C339        C  0.37368501  0.59879425  0.89102657    -0.19900
C340        C  0.37333682  0.59412806  0.93317551    -0.12400
C341        C  0.40381427  0.60537393  0.95447910     0.04200
C342        C  0.43492769  0.62208255  0.93286037    -0.24600
H343        H  0.49031838  0.65678584  0.80970349     0.09300
H344        H  0.49032760  0.65262527  0.88425277     0.12900
H345        H  0.38087780  0.60789577  0.81095349     0.12900
H346        H  0.34975601  0.58948059  0.87527679     0.12600
H347        H  0.34914403  0.58150384  0.94910200     0.13200
H348        H  0.45868668  0.63126205  0.94897511     0.15100
C349        C  0.70465872  0.26022013  0.46975683    -0.04900
C350        C  0.73395294  0.28739049  0.48694115    -0.04800
C351        C  0.76033551  0.31159472  0.46211540    -0.23000
C352        C  0.75803837  0.30895154  0.41957801     0.19200
C353        C  0.72984944  0.28044496  0.40207726     0.16400
C354        C  0.70329791  0.25637164  0.42720991    -0.18000
C355        C  0.72797868  0.27729848  0.35960218    -0.19900
C356        C  0.75253612  0.30318490  0.33461397    -0.12400
C357        C  0.77920924  0.33288047  0.35154219     0.04200
C358        C  0.78249654  0.33505570  0.39422126    -0.24600
H359        H  0.73579879  0.29081322  0.51957119     0.09300
H360        H  0.78197735  0.33299586  0.47615035     0.12900
H361        H  0.68107380  0.23529536  0.41354808     0.12900
H362        H  0.70682396  0.25539886  0.34563625     0.12600
H363        H  0.74952320  0.30078200  0.30191867     0.13200
H364        H  0.80321724  0.35764234  0.40767783     0.15100
C365        C  0.76090986  0.45102076  0.26333262    -0.04900
C366        C  0.74078197  0.44936830  0.29631410    -0.04800
C367        C  0.71025448  0.44860815  0.28940994    -0.23000
C368        C  0.69978103  0.44968180  0.24948019     0.19200
C369        C  0.72150537  0.45443746  0.21641728     0.16400
C370        C  0.75194957  0.45506004  0.22362654    -0.18000
C371        C  0.71132832  0.45618175  0.17654452    -0.19900
C372        C  0.67883247  0.45081415  0.16924569    -0.12400
C373        C  0.65615653  0.44328791  0.20171185     0.04200
C374        C  0.66717563  0.44399837  0.24184283    -0.24600
H375        H  0.74735252  0.44613008  0.32704203     0.09300
H376        H  0.69402738  0.44540329  0.31509513     0.12900
H377        H  0.76769298  0.45656571  0.19814006     0.12900
H378        H  0.72792330  0.46024951  0.15093384     0.12600
H379        H  0.67075046  0.45061020  0.13820263     0.13200
H380        H  0.64981569  0.43877230  0.26703056     0.15100
C381        C  0.77307048  0.48480343  0.78379492    -0.04900
C382        C  0.74995072  0.49290852  0.80042336    -0.04800
C383        C  0.72738710  0.49685341  0.77533973    -0.23000
C384        C  0.72780722  0.49322939  0.73302128     0.19200
C385        C  0.75192053  0.48651675  0.71579768     0.16400
C386        C  0.77414932  0.48208111  0.74124653    -0.18000
C387        C  0.75291628  0.48364787  0.67343950    -0.19900
C388        C  0.72960967  0.48636046  0.64845661    -0.12400
C389        C  0.70450436  0.49151112  0.66529854     0.04200
C390        C  0.70405967  0.49537938  0.70773186    -0.24600
H391        H  0.74858246  0.49516430  0.83301893     0.09300
H392        H  0.70926348  0.50224138  0.78911777     0.12900
H393        H  0.79201930  0.47610156  0.72794537     0.12900
H394        H  0.77132796  0.47866541  0.65966317     0.12600
H395        H  0.73032339  0.48297659  0.61600856     0.13200
H396        H  0.68483346  0.49937137  0.72112622     0.15100
C397        C  0.76663633  0.35198746  0.89144153    -0.04900
C398        C  0.75791469  0.32457907  0.86587631    -0.04800
C399        C  0.73300405  0.29166486  0.87818827    -0.23000
C400        C  0.71672467  0.28592621  0.91621223     0.19200
C401        C  0.72746780  0.31319137  0.94310890     0.16400
C402        C  0.75243491  0.34582363  0.93067451    -0.18000
C403        C  0.71141079  0.30794117  0.98096063    -0.19900
C404        C  0.68264228  0.27677112  0.99050877    -0.12400
C405        C  0.66989996  0.25019078  0.96272761     0.04200
C406        C  0.68825262  0.25423271  0.92660420    -0.24600
H407        H  0.76904908  0.32880787  0.83576701     0.09300
H408        H  0.72537524  0.27102074  0.85729244     0.12900
H409        H  0.75972152  0.36680486  0.95099138     0.12900
H410        H  0.71968993  0.32858356  0.00203626     0.12600
H411        H  0.66897557  0.27417881  0.01845633     0.13200
H412        H  0.67843187  0.23394416  0.90477907     0.15100
C413        C  0.85339728  0.46719626  0.99317887    -0.04900
C414        C  0.85606673  0.49349373  0.01698360    -0.04800
C415        C  0.85773913  0.49194944  0.05946121    -0.23000
C416        C  0.85605869  0.46373064  0.07885478     0.19200
C417        C  0.85364408  0.43727091  0.05515741     0.16400
C418        C  0.85283320  0.43940914  0.01255526    -0.18000
C419        C  0.85105103  0.40864227  0.07449526    -0.19900
C420        C  0.85005306  0.40586342  0.11699740    -0.12400
C421        C  0.85219708  0.43188611  0.14093006     0.04200
C422        C  0.85574290  0.46105475  0.12152395    -0.24600
H423        H  0.85656073  0.51509792  0.00276299     0.09300
H424        H  0.85956389  0.51246216  0.07718680     0.12900
H425        H  0.85043740  0.41875848  0.99455630     0.12900
H426        H  0.84907819  0.38807614  0.05673900     0.12600
H427        H  0.84726638  0.38318982  0.13115201     0.13200
H428        H  0.85713431  0.48122968  0.13958481     0.15100
C429        C  0.23593322  0.69646922  0.84495673    -0.04900
C430        C  0.26803735  0.72268847  0.83180154    -0.04800
C431        C  0.29049596  0.74707140  0.85891027    -0.23000
C432        C  0.28123005  0.74602169  0.89973867     0.19200
C433        C  0.24878885  0.72027321  0.91345778     0.16400
C434        C  0.22638740  0.69544204  0.88602665    -0.18000
C435        C  0.23958840  0.71985307  0.95436073    -0.19900
C436        C  0.26247066  0.74446983  0.98135729    -0.12400
C437        C  0.29509021  0.76965156  0.96803862     0.04200
C438        C  0.30409980  0.77024351  0.92704210    -0.24600
H439        H  0.27609696  0.72402638  0.80054413     0.09300
H440        H  0.31526457  0.76672330  0.84792414     0.12900
H441        H  0.20164960  0.67539695  0.89660434     0.12900
H442        H  0.21479548  0.70040118  0.96551757     0.12600
H443        H  0.25495640  0.74337813  0.01281215     0.13200
H444        H  0.32909279  0.78963790  0.91628636     0.15100
C445        C  0.22040300  0.55749393  0.75256534    -0.04900
C446        C  0.24028093  0.55652713  0.78452489    -0.04800
C447        C  0.26743544  0.55172612  0.77644818    -0.23000
C448        C  0.27563319  0.54885875  0.73617242     0.19200
C449        C  0.25422499  0.54728217  0.70418071     0.16400
C450        C  0.22608972  0.55047912  0.71279460    -0.18000
C451        C  0.26331027  0.54620874  0.66373184    -0.19900
C452        C  0.29508973  0.55047285  0.65485490    -0.12400
C453        C  0.31747192  0.55437628  0.68636525     0.04200
C454        C  0.30663166  0.55117012  0.72703126    -0.24600
H455        H  0.23627796  0.56173661  0.81537822     0.09300
H456        H  0.28355234  0.55290108  0.80133398     0.12900
H457        H  0.21097250  0.55126578  0.68783823     0.12900
H458        H  0.24712236  0.54490753  0.63886725     0.12600
H459        H  0.30306362  0.55289852  0.62337485     0.13200
H460        H  0.32403393  0.55469121  0.75150608     0.15100
C461        C  0.06576882  0.57817615  0.79582805    -0.04900
C462        C  0.05525065  0.59975669  0.81087984    -0.04800
C463        C  0.02111101  0.58699937  0.82122008    -0.23000
C464        C  0.99689577  0.55262418  0.81572844     0.19200
C465        C  0.00737098  0.53098132  0.79999869     0.16400
C466        C  0.04172088  0.54377054  0.79076812    -0.18000
C467        C  0.98330826  0.49686831  0.79348304    -0.19900
C468        C  0.94914560  0.48405768  0.80287354    -0.12400
C469        C  0.93838385  0.50499256  0.81937844     0.04200
C470        C  0.96244342  0.53943064  0.82561643    -0.24600
H471        H  0.07350926  0.62639810  0.81503087     0.09300
H472        H  0.01361861  0.60402705  0.83318069     0.12900
H473        H  0.04964445  0.52707171  0.77874564     0.12900
H474        H  0.99092488  0.48002125  0.78123150     0.12600
H475        H  0.93119039  0.45746724  0.79791561     0.13200
H476        H  0.95444337  0.55584213  0.83832753     0.15100
C477        C  0.32163449  0.59327012  0.15692848    -0.04900
C478        C  0.29691559  0.59797755  0.13757716    -0.04800
C479        C  0.27277158  0.60099109  0.16040315    -0.23000
C480        C  0.27263888  0.59911038  0.20313282     0.19200
C481        C  0.29714864  0.59404651  0.22286081     0.16400
C482        C  0.32147680  0.59132889  0.19975911    -0.18000
C483        C  0.29706526  0.59194803  0.26546493    -0.19900
C484        C  0.27301573  0.59481478  0.28840735    -0.12400
C485        C  0.24852287  0.60006220  0.26943548     0.04200
C486        C  0.24856993  0.60225765  0.22651213    -0.24600
H487        H  0.29661986  0.59994990  0.10472582     0.09300
H488        H  0.25427559  0.60492710  0.14460739     0.12900
H489        H  0.34043197  0.58787597  0.21521053     0.12900
H490        H  0.31567139  0.58810014  0.28113436     0.12600
H491        H  0.27379601  0.59317636  0.32125139     0.13200
H492        H  0.22995306  0.60638686  0.21133807     0.15100
C493        C  0.22088869  0.72180469  0.36384169    -0.04900
C494        C  0.24347746  0.74660023  0.33609500    -0.04800
C495        C  0.26862838  0.77829257  0.34985922    -0.23000
C496        C  0.27243324  0.78481587  0.39171372     0.19200
C497        C  0.24838936  0.76078495  0.41950620     0.16400
C498        C  0.22174547  0.73006259  0.40504689    -0.18000
C499        C  0.25383282  0.76593968  0.46153247    -0.19900
C500        C  0.28478325  0.79247375  0.47576766    -0.12400
C501        C  0.30945700  0.81533806  0.44817874     0.04200
C502        C  0.30202281  0.81288238  0.40642699    -0.24600
H503        H  0.24315265  0.74069728  0.30425604     0.09300
H504        H  0.28695211  0.79644543  0.32822650     0.12900
H505        H  0.20460623  0.71089406  0.42673378     0.12900
H506        H  0.23569202  0.74764810  0.48321218     0.12600
H507        H  0.29032143  0.79390043  0.50797979     0.13200
H508        H  0.32139293  0.83009037  0.38498216     0.15100
C509        C  0.07012751  0.56262152  0.31694115    -0.04900
C510        C  0.05437511  0.58127829  0.30782785    -0.04800
C511        C  0.01899486  0.56502433  0.30412433    -0.23000
C512        C  0.99875986  0.52980152  0.30926265     0.19200
C513        C  0.01444588  0.51087459  0.31829673     0.16400
C514        C  0.04989961  0.52736775  0.32215812    -0.18000
C515        C  0.99444872  0.47567165  0.32304109    -0.19900
C516        C  0.95932462  0.45917400  0.31770332    -0.12400
C517        C  0.94343977  0.47757318  0.30808188     0.04200
C518        C  0.96324020  0.51305380  0.30471795    -0.24600
H519        H  0.06938410  0.60853465  0.30409362     0.09300
H520        H  0.00748321  0.57999187  0.29717828     0.12900
H521        H  0.06171907  0.51272063  0.32941755     0.12900
H522        H  0.00604504  0.46080101  0.33011503     0.12600
H523        H  0.94457102  0.43183807  0.32054092     0.13200
H524        H  0.95122915  0.52743774  0.29699213     0.15100
C525        C  0.17781464  0.60258475  0.47846601    -0.04900
C526        C  0.15563929  0.57187498  0.49869971    -0.04800
C527        C  0.15039766  0.57098592  0.54078753    -0.23000
C528        C  0.16699550  0.60084715  0.56340333     0.19200
C529        C  0.18973919  0.63179114  0.54355639     0.16400
C530        C  0.19509664  0.63243047  0.50134805    -0.18000
C531        C  0.20650747  0.66162036  0.56623247    -0.19900
C532        C  0.20113943  0.66076451  0.60829759    -0.12400
C533        C  0.17845536  0.63017737  0.62834630     0.04200
C534        C  0.16129672  0.60029798  0.60550652    -0.24600
H535        H  0.14184745  0.54862281  0.48184662     0.09300
H536        H  0.13296795  0.54698983  0.55556326     0.12900
H537        H  0.21198832  0.65640367  0.48613869     0.12900
H538        H  0.22402619  0.68559689  0.55147607     0.12600
H539        H  0.21483197  0.68399986  0.62519806     0.13200
H540        H  0.14410985  0.57639656  0.62067559     0.15100
loop_ 
_geom_bond_atom_site_label_1 
_geom_bond_atom_site_label_2 
_geom_bond_distance 
_geom_bond_site_symmetry_2 
_ccdc_geom_bond_type 
O1            C4   1.264       .  A
O1           Cd6   2.466       .  S
C2           O11   1.267       .  A
C2            O7   1.262       .  A
C2          C493   1.471       .  S
O3            C9   1.269       .  A
O3           Cd6   2.509       .  S
C4           O12   1.266       .  A
C4          C509   1.479       .  S
C5           O10   1.267       .  A
C5            O8   1.265       .  A
C5          C485   1.494       .  S
Cd6          O13   2.459       .  S
Cd6          O12   2.465       .  S
Cd6          O11   2.474       .  S
Cd6           O7   2.428       .  S
Cd6          O10   2.497       .  S
Cd6           O8   2.521       .  S
C9           O13   1.264       .  A
C9          C525   1.486       .  S
O14          C17   1.265       .  A
O14         Cd19   2.480       .  S
C15          O24   1.264       .  A
C15          O20   1.271       .  A
C15         C533   1.485       .  S
O16          C22   1.258       .  A
O16         Cd19   2.442       .  S
C17          O25   1.270       .  A
C17         C429   1.487       .  S
C18          O23   1.267       .  A
C18          O21   1.266       .  A
C18         C461   1.473       .  S
Cd19         O26   2.501       .  S
Cd19         O25   2.487       .  S
Cd19         O24   2.444       .  S
Cd19         O20   2.510       .  S
Cd19         O23   2.449       .  S
Cd19         O21   2.462       .  S
C22          O26   1.265       .  A
C22         C445   1.476       .  S
O27          C30   1.268       .  A
O27         Cd32   2.442       .  S
C28          O37   1.264       .  A
C28          O33   1.270       .  A
C28         C397   1.475       .  S
O29          C35   1.273       .  A
O29         Cd32   2.504       .  S
C30          O38   1.267       .  A
C30         C469   1.479       .  S
C31          O36   1.269       .  A
C31          O34   1.265       .  A
C31         C381   1.488       .  S
Cd32         O39   2.421       .  S
Cd32         O38   2.469       .  S
Cd32         O37   2.397       .  S
Cd32         O33   2.513       .  S
Cd32         O36   2.509       .  S
Cd32         O34   2.474       .  S
C35          O39   1.264       .  A
C35         C413   1.481       .  S
O40          C43   1.270       .  A
O40         Cd45   2.495       .  S
C41          O50   1.265       .  A
C41          O46   1.273       .  A
C41         C421   1.484       .  S
O42          C48   1.271       .  A
O42         Cd45   2.510       .  S
C43          O51   1.266       .  A
C43         C357   1.486       .  S
C44          O49   1.269       .  A
C44          O47   1.265       .  A
C44         C517   1.476       .  S
Cd45         O52   2.394       .  S
Cd45         O51   2.475       .  S
Cd45         O50   2.436       .  S
Cd45         O46   2.499       .  S
Cd45         O49   2.484       .  S
Cd45         O47   2.426       .  S
C48          O52   1.262       .  A
C48         C365   1.468       .  S
O53          C56   1.267       .  A
O53         Cd58   2.486       .  S
C54          O63   1.260       .  A
C54          O59   1.269       .  A
C54         C333   1.481       .  S
O55          C61   1.265       .  A
O55         Cd58   2.448       .  S
C56          O64   1.264       .  A
C56         C309   1.481       .  S
C57          O62   1.264       .  A
C57          O60   1.264       .  A
C57         C317   1.477       .  S
Cd58         O65   2.457       .  S
Cd58         O64   2.458       .  S
Cd58         O63   2.425       .  S
Cd58         O59   2.520       .  S
Cd58         O62   2.464       .  S
Cd58         O60   2.471       .  S
C61          O65   1.267       .  A
C61         C453   1.471       .  S
O66          C69   1.270       .  A
O66         Cd71   2.510       .  S
C67          O76   1.263   1_556  A
C67          O72   1.270   1_556  A
C67         C341   1.483       .  S
O68          C74   1.263       .  A
O68         Cd71   2.442       .  S
C69          O77   1.266       .  A
C69         C477   1.492       .  S
C70          O75   1.264       .  A
C70          O73   1.266       .  A
C70         C285   1.479       .  S
Cd71         O78   2.471       .  S
Cd71         O77   2.475       .  S
Cd71         O76   2.452       .  S
Cd71         O72   2.497       .  S
Cd71         O75   2.453       .  S
Cd71         O73   2.496       .  S
C74          O78   1.261       .  A
C74         C269   1.473       .  S
O79          C82   1.271       .  A
O79         Cd84   2.495       .  S
C80          O89   1.264       .  A
C80          O85   1.275       .  A
C80         C253   1.481       .  S
O81          C87   1.271       .  A
O81         Cd84   2.492       .  S
C82          O90   1.266       .  A
C82         C389   1.487       .  S
C83          O88   1.268       .  A
C83          O86   1.268       .  A
C83         C325   1.476       .  S
Cd84         O91   2.371       .  S
Cd84         O90   2.469       .  S
Cd84         O89   2.407       .  S
Cd84         O85   2.502       .  S
Cd84         O88   2.435       .  S
Cd84         O86   2.460       .  S
C87          O91   1.262       .  A
C87         C245   1.465       .  S
O92          C95   1.272       .  A
O92         Cd97   2.541       .  S
C93         O102   1.263       .  A
C93          O98   1.276       .  A
C93         C261   1.480       .  S
O94         C100   1.264       .  A
O94         Cd97   2.411       .  S
C95         O103   1.264       .  A
C95         C221   1.489       .  S
C96         O101   1.268       .  A
C96          O99   1.269       .  A
C96         C293   1.482       .  S
Cd97        O104   2.497       .  S
Cd97        O103   2.426       .  S
Cd97        O102   2.390       .  S
Cd97         O98   2.519       .  S
Cd97        O101   2.445       .  S
Cd97         O99   2.482       .  S
C100        O104   1.270       .  A
C100        C373   1.470       .  S
O105        C108   1.264       .  A
O105       Cd110   2.431       .  S
C106        O115   1.266       .  A
C106        O111   1.266       .  A
C106        C189   1.476       .  S
O107        C113   1.267       .  A
O107       Cd110   2.506       .  S
C108        O116   1.267       .  A
C108        C501   1.466       .  S
C109        O114   1.269       .  A
C109        O112   1.261       .  A
C109        C205   1.481       .  S
Cd110       O117   2.453       .  S
Cd110       O116   2.465       .  S
Cd110       O115   2.446       .  S
Cd110       O111   2.459       .  S
Cd110       O114   2.507       .  S
Cd110       O112   2.440       .  S
C113        O117   1.263       .  A
C113        C301   1.482       .  S
O118        C121   1.265       .  A
O118       Cd123   2.445   1_556  S
C119        O128   1.264       .  A
C119        O124   1.273       .  A
C119        C213   1.483       .  S
O120        C126   1.269       .  A
O120       Cd123   2.489       .  S
C121        O129   1.270   1_556  A
C121        C437   1.486       .  S
C122        O127   1.267       .  A
C122        O125   1.269       .  A
C122        C181   1.478   1_554  S
Cd123       O130   2.394       .  S
Cd123       O129   2.520       .  S
Cd123       O128   2.422       .  S
Cd123       O124   2.502       .  S
Cd123       O127   2.448       .  S
Cd123       O125   2.468       .  S
C126        O130   1.262       .  A
C126        C277   1.469       .  S
O131        C134   1.269       .  A
O131       Cd136   2.502       .  S
C132        O141   1.263       .  A
C132        O137   1.272       .  A
C132        C165   1.483       .  S
O133        C139   1.268       .  A
O133       Cd136   2.503       .  S
C134        O142   1.265       .  A
C134        C349   1.488       .  S
C135        O140   1.264       .  A
C135        O138   1.266       .  A
C135        C197   1.470       .  S
Cd136       O143   2.380       .  S
Cd136       O142   2.478       .  S
Cd136       O141   2.422       .  S
Cd136       O137   2.509       .  S
Cd136       O140   2.450       .  S
Cd136       O138   2.459       .  S
C139        O143   1.260       .  A
C139        C237   1.463       .  S
O144        C147   1.267       .  A
O144       Cd149   2.485       .  S
C145        O154   1.266       .  A
C145        O150   1.265       .  A
C145        C405   1.475       .  S
O146        C152   1.271       .  A
O146       Cd149   2.521       .  S
C147        O155   1.264       .  A
C147        C173   1.480       .  S
C148        O153   1.270   1_554  A
C148        O151   1.267       .  A
C148        C229   1.489       .  S
Cd149       O156   2.420       .  S
Cd149       O155   2.458       .  S
Cd149       O154   2.448       .  S
Cd149       O150   2.475       .  S
Cd149       O153   2.501       .  S
Cd149       O151   2.469   1_556  S
C152        O156   1.259       .  A
C152        C157   1.481       .  S
C157        C158   1.403       .  A
C157        C162   1.411       .  A
C158        C159   1.399       .  A
C158        H167   1.083       .  S
C159        C160   1.405       .  A
C159        H168   1.084       .  S
C160        C166   1.403       .  A
C160        C161   1.411       .  A
C161        C163   1.405       .  A
C161        C162   1.404       .  A
C162        H169   1.084       .  S
C163        C164   1.400       .  A
C163        H170   1.084       .  S
C164        C165   1.404       .  A
C164        H171   1.083       .  S
C165        C166   1.410       .  A
C166        H172   1.084       .  S
C173        C174   1.404       .  A
C173        C178   1.408       .  A
C174        C175   1.398       .  A
C174        H183   1.083       .  S
C175        C176   1.402   1_545  A
C175        H184   1.084   1_556  S
C176        C182   1.403       .  A
C176        C177   1.413   1_565  A
C177        C179   1.403   1_545  A
C177        C178   1.405       .  A
C178        H185   1.084       .  S
C179        C180   1.399       .  A
C179        H186   1.084   1_565  S
C180        C181   1.404       .  A
C180        H187   1.083       .  S
C181        C182   1.406       .  A
C182        H188   1.085   1_556  S
C189        C190   1.405       .  A
C189        C194   1.405       .  A
C190        C191   1.397   1_565  A
C190        H199   1.083       .  S
C191        C192   1.402       .  A
C191        H200   1.084       .  S
C192        C198   1.402       .  A
C192        C193   1.414       .  A
C193        C195   1.402       .  A
C193        C194   1.401   1_545  A
C194        H201   1.084       .  S
C195        C196   1.396       .  A
C195        H202   1.084       .  S
C196        C197   1.402       .  A
C196        H203   1.083       .  S
C197        C198   1.404       .  A
C198        H204   1.085       .  S
C205        C206   1.403       .  A
C205        C210   1.410       .  A
C206        C207   1.400       .  A
C206        H215   1.083       .  S
C207        C208   1.405       .  A
C207        H216   1.083       .  S
C208        C214   1.404       .  A
C208        C209   1.411       .  A
C209        C211   1.405       .  A
C209        C210   1.404       .  A
C210        H217   1.084       .  S
C211        C212   1.400       .  A
C211        H218   1.083       .  S
C212        C213   1.404       .  A
C212        H219   1.083       .  S
C213        C214   1.410       .  A
C214        H220   1.084       .  S
C221        C222   1.408       .  A
C221        C226   1.410       .  A
C222        C223   1.396       .  A
C222        H231   1.083       .  S
C223        C224   1.399       .  A
C223        H232   1.084       .  S
C224        C230   1.408       .  A
C224        C225   1.415       .  A
C225        C227   1.403       .  A
C225        C226   1.414       .  A
C226        H233   1.084       .  S
C227        C228   1.402       .  A
C227        H234   1.084       .  S
C228        C229   1.408       .  A
C228        H235   1.083       .  S
C229        C230   1.406       .  A
C230        H236   1.084   1_554  S
C237        C238   1.400       .  A
C237        C242   1.405       .  A
C238        C239   1.396       .  A
C238        H247   1.083       .  S
C239        C240   1.404       .  A
C239        H248   1.084       .  S
C240        C246   1.396       .  A
C240        C241   1.412       .  A
C241        C243   1.405       .  A
C241        C242   1.397       .  A
C242        H249   1.085       .  S
C243        C244   1.398       .  A
C243        H250   1.083       .  S
C244        C245   1.401       .  A
C244        H251   1.083       .  S
C245        C246   1.405       .  A
C246        H252   1.085       .  S
C253        C254   1.403       .  A
C253        C258   1.412       .  A
C254        C255   1.399       .  A
C254        H263   1.083       .  S
C255        C256   1.404       .  A
C255        H264   1.084       .  S
C256        C262   1.401       .  A
C256        C257   1.411       .  A
C257        C259   1.407       .  A
C257        C258   1.404       .  A
C258        H265   1.084       .  S
C259        C260   1.402       .  A
C259        H266   1.083       .  S
C260        C261   1.403       .  A
C260        H267   1.083       .  S
C261        C262   1.409       .  A
C262        H268   1.084       .  S
C269        C270   1.407       .  A
C269        C274   1.402       .  A
C270        C271   1.399       .  A
C270        H279   1.083       .  S
C271        C272   1.402       .  A
C271        H280   1.084       .  S
C272        C278   1.405       .  A
C272        C273   1.416       .  A
C273        C275   1.398       .  A
C273        C274   1.397       .  A
C274        H281   1.085       .  S
C275        C276   1.390       .  A
C275        H282   1.084       .  S
C276        C277   1.405       .  A
C276        H283   1.084       .  S
C277        C278   1.403       .  A
C278        H284   1.084       .  S
C285        C286   1.405       .  A
C285        C290   1.404       .  A
C286        C287   1.402       .  A
C286        H295   1.083       .  S
C287        C288   1.405       .  A
C287        H296   1.083       .  S
C288        C294   1.409       .  A
C288        C289   1.414       .  A
C289        C291   1.400       .  A
C289        C290   1.402       .  A
C290        H297   1.084       .  S
C291        C292   1.395       .  A
C291        H298   1.083       .  S
C292        C293   1.405       .  A
C292        H299   1.083       .  S
C293        C294   1.410       .  A
C294        H300   1.084       .  S
C301        C302   1.406       .  A
C301        C306   1.407       .  A
C302        C303   1.397       .  A
C302        H311   1.083       .  S
C303        C304   1.401       .  A
C303        H312   1.084       .  S
C304        C310   1.405       .  A
C304        C305   1.415       .  A
C305        C307   1.402       .  A
C305        C306   1.407       .  A
C306        H313   1.084       .  S
C307        C308   1.398       .  A
C307        H314   1.083       .  S
C308        C309   1.407       .  A
C308        H315   1.083       .  S
C309        C310   1.405       .  A
C310        H316   1.084       .  S
C317        C318   1.405       .  A
C317        C322   1.407       .  A
C318        C319   1.396       .  A
C318        H327   1.083       .  S
C319        C320   1.401       .  A
C319        H328   1.083       .  S
C320        C326   1.401       .  A
C320        C321   1.414       .  A
C321        C323   1.403       .  A
C321        C322   1.404       .  A
C322        H329   1.084       .  S
C323        C324   1.399       .  A
C323        H330   1.083       .  S
C324        C325   1.405       .  A
C324        H331   1.083       .  S
C325        C326   1.405       .  A
C326        H332   1.084       .  S
C333        C334   1.404       .  A
C333        C338   1.409       .  A
C334        C335   1.402       .  A
C334        H343   1.083       .  S
C335        C336   1.406       .  A
C335        H344   1.083       .  S
C336        C342   1.407       .  A
C336        C337   1.412       .  A
C337        C339   1.403       .  A
C337        C338   1.402       .  A
C338        H345   1.084       .  S
C339        C340   1.398       .  A
C339        H346   1.084       .  S
C340        C341   1.404       .  A
C340        H347   1.083       .  S
C341        C342   1.411       .  A
C342        H348   1.084       .  S
C349        C350   1.406       .  A
C349        C354   1.409       .  A
C350        C351   1.401       .  A
C350        H359   1.083       .  S
C351        C352   1.404       .  A
C351        H360   1.083       .  S
C352        C358   1.410       .  A
C352        C353   1.413       .  A
C353        C355   1.404       .  A
C353        C354   1.409       .  A
C354        H361   1.084       .  S
C355        C356   1.400       .  A
C355        H362   1.083       .  S
C356        C357   1.405       .  A
C356        H363   1.083       .  S
C357        C358   1.410       .  A
C358        H364   1.084       .  S
C365        C366   1.401       .  A
C365        C370   1.405       .  A
C366        C367   1.399       .  A
C366        H375   1.083       .  S
C367        C368   1.405       .  A
C367        H376   1.084       .  S
C368        C374   1.401       .  A
C368        C369   1.412       .  A
C369        C371   1.405       .  A
C369        C370   1.400       .  A
C370        H377   1.085       .  S
C371        C372   1.399       .  A
C371        H378   1.084       .  S
C372        C373   1.401       .  A
C372        H379   1.083       .  S
C373        C374   1.406       .  A
C374        H380   1.085       .  S
C381        C382   1.406       .  A
C381        C386   1.409       .  A
C382        C383   1.402       .  A
C382        H391   1.083       .  S
C383        C384   1.405       .  A
C383        H392   1.083       .  S
C384        C390   1.410       .  A
C384        C385   1.413       .  A
C385        C387   1.404       .  A
C385        C386   1.408       .  A
C386        H393   1.084       .  S
C387        C388   1.400       .  A
C387        H394   1.083       .  S
C388        C389   1.405       .  A
C388        H395   1.083       .  S
C389        C390   1.410       .  A
C390        H396   1.084       .  S
C397        C398   1.403       .  A
C397        C402   1.404       .  A
C398        C399   1.404       .  A
C398        H407   1.083       .  S
C399        C400   1.408       .  A
C399        H408   1.083       .  S
C400        C406   1.407       .  A
C400        C401   1.413       .  A
C401        C403   1.400       .  A
C401        C402   1.397       .  A
C402        H409   1.085       .  S
C403        C404   1.393       .  A
C403        H410   1.084   1_556  S
C404        C405   1.403       .  A
C404        H411   1.083   1_556  S
C405        C406   1.411       .  A
C406        H412   1.084       .  S
C413        C414   1.403   1_556  A
C413        C418   1.410   1_556  A
C414        C415   1.401       .  A
C414        H423   1.083       .  S
C415        C416   1.406       .  A
C415        H424   1.083       .  S
C416        C422   1.406       .  A
C416        C417   1.412       .  A
C417        C419   1.404       .  A
C417        C418   1.404       .  A
C418        H425   1.084   1_554  S
C419        C420   1.400       .  A
C419        H426   1.083       .  S
C420        C421   1.404       .  A
C420        H427   1.083       .  S
C421        C422   1.411       .  A
C422        H428   1.084       .  S
C429        C430   1.404       .  A
C429        C434   1.413       .  A
C430        C431   1.396       .  A
C430        H439   1.083       .  S
C431        C432   1.401       .  A
C431        H440   1.084       .  S
C432        C438   1.404       .  A
C432        C433   1.413       .  A
C433        C435   1.407       .  A
C433        C434   1.412       .  A
C434        H441   1.084       .  S
C435        C436   1.405       .  A
C435        H442   1.084       .  S
C436        C437   1.406       .  A
C436        H443   1.083   1_556  S
C437        C438   1.406       .  A
C438        H444   1.084       .  S
C445        C446   1.404       .  A
C445        C450   1.408       .  A
C446        C447   1.398       .  A
C446        H455   1.083       .  S
C447        C448   1.404       .  A
C447        H456   1.084       .  S
C448        C454   1.402       .  A
C448        C449   1.413       .  A
C449        C451   1.403       .  A
C449        C450   1.401       .  A
C450        H457   1.084       .  S
C451        C452   1.397       .  A
C451        H458   1.084       .  S
C452        C453   1.402       .  A
C452        H459   1.083       .  S
C453        C454   1.406       .  A
C454        H460   1.085       .  S
C461        C462   1.405       .  A
C461        C466   1.402       .  A
C462        C463   1.400       .  A
C462        H471   1.083       .  S
C463        C464   1.404   1_455  A
C463        H472   1.084       .  S
C464        C470   1.406       .  A
C464        C465   1.414   1_655  A
C465        C467   1.399   1_455  A
C465        C466   1.400       .  A
C466        H473   1.085       .  S
C467        C468   1.394       .  A
C467        H474   1.084       .  S
C468        C469   1.405       .  A
C468        H475   1.083       .  S
C469        C470   1.409       .  A
C470        H476   1.084       .  S
C477        C478   1.407       .  A
C477        C482   1.409       .  A
C478        C479   1.404       .  A
C478        H487   1.083       .  S
C479        C480   1.406       .  A
C479        H488   1.083       .  S
C480        C486   1.414       .  A
C480        C481   1.413       .  A
C481        C483   1.402       .  A
C481        C482   1.409       .  A
C482        H489   1.084       .  S
C483        C484   1.399       .  A
C483        H490   1.084       .  S
C484        C485   1.406       .  A
C484        H491   1.083       .  S
C485        C486   1.413       .  A
C486        H492   1.084       .  S
C493        C494   1.403       .  A
C493        C498   1.407       .  A
C494        C495   1.397       .  A
C494        H503   1.083       .  S
C495        C496   1.404       .  A
C495        H504   1.084       .  S
C496        C502   1.399       .  A
C496        C497   1.413       .  A
C497        C499   1.405       .  A
C497        C498   1.400       .  A
C498        H505   1.085       .  S
C499        C500   1.398       .  A
C499        H506   1.084       .  S
C500        C501   1.401       .  A
C500        H507   1.083       .  S
C501        C502   1.405       .  A
C502        H508   1.085       .  S
C509        C510   1.407       .  A
C509        C514   1.404       .  A
C510        C511   1.399       .  A
C510        H519   1.083       .  S
C511        C512   1.402   1_455  A
C511        H520   1.084       .  S
C512        C518   1.406       .  A
C512        C513   1.415   1_655  A
C513        C515   1.400   1_455  A
C513        C514   1.402       .  A
C514        H521   1.084       .  S
C515        C516   1.394       .  A
C515        H522   1.084   1_655  S
C516        C517   1.405       .  A
C516        H523   1.083       .  S
C517        C518   1.406       .  A
C518        H524   1.084       .  S
C525        C526   1.405       .  A
C525        C530   1.411       .  A
C526        C527   1.401       .  A
C526        H535   1.083       .  S
C527        C528   1.405       .  A
C527        H536   1.084       .  S
C528        C534   1.406       .  A
C528        C529   1.412       .  A
C529        C531   1.405       .  A
C529        C530   1.407       .  A
C530        H537   1.084       .  S
C531        C532   1.401       .  A
C531        H538   1.084       .  S
C532        C533   1.404       .  A
C532        H539   1.083       .  S
C533        C534   1.411       .  A
C534        H540   1.084       .  S
