geometry optimzed in LAMMPS
_audit_creation_date              2020-12-01 
_audit_creation_method            'lammps2cif' 
_symmetry_space_group_name_H-M    'P1' 
_symmetry_Int_Tables_number       1 
_symmetry_cell_setting            triclinic 
loop_ 
_symmetry_equiv_pos_as_xyz 
  x,y,z 
_cell_length_a                    29.15424498 
_cell_length_b                    29.686224741593534 
_cell_length_c                    29.058757002281077 
_cell_angle_alpha                 93.58884673805757 
_cell_angle_beta                  91.90982225115405 
_cell_angle_gamma                 89.72062510021102 
loop_ 
_atom_site_label 
_atom_site_type_symbol 
_atom_site_fract_x 
_atom_site_fract_y 
_atom_site_fract_z 
_atom_site_charge 
C1          C  0.78965070  0.83008947  0.04123640     0.79200
N2          N  0.77822321  0.87417236  0.04143973    -0.79100
C3          C  0.79844918  0.90009922  0.01191812     0.81600
N4          N  0.81079865  0.88035005  0.97085723    -0.79100
C5          C  0.81447905  0.83467914  0.96448215     0.81700
N6          N  0.80702835  0.80891552  0.00161484    -0.80800
C7          C  0.81710185  0.27809278  0.04957867     0.79200
N8          N  0.86365502  0.27747648  0.05040728    -0.79100
C9          C  0.88770009  0.27922478  0.01197853     0.81600
N10         N  0.86467833  0.28037128  0.97123035    -0.79100
C11         C  0.81833011  0.27976834  0.96725041     0.81700
N12         N  0.79330209  0.27909622  0.00721145    -0.80800
C13         C  0.27357089  0.83623643  0.02940391     0.79200
N14         N  0.29144421  0.85610473  0.99191568    -0.79100
C15         C  0.28380943  0.83554132  0.94814803     0.81600
N16         N  0.25982127  0.79643516  0.94338335    -0.79100
C17         C  0.24243644  0.77700314  0.97987384     0.81700
N18         N  0.24984845  0.79743765  0.02227565    -0.80800
C19         C  0.80493602  0.09955200  0.78941648     0.79200
N20         N  0.81078050  0.09955342  0.83584416    -0.79100
C21         C  0.80869697  0.06145011  0.85832497     0.81600
N22         N  0.80234469  0.02194881  0.83325456    -0.79100
C23         C  0.79771838  0.01880863  0.78659675     0.81700
N24         N  0.79844003  0.05856716  0.76368905    -0.80800
C25         C  0.00385874  0.26123608  0.74061885     0.79200
N26         N  0.00730773  0.21914889  0.75482359    -0.79100
C27         C  0.04758006  0.19790564  0.75852593     0.81600
N28         N  0.08608040  0.21877559  0.74689184    -0.79100
C29         C  0.08547272  0.26091365  0.73158541     0.81700
N30         N  0.04352598  0.28355966  0.72909698    -0.80800
C31         C  0.99460013  0.82140777  0.76629730     0.79200
N32         N  0.99681212  0.80223386  0.80668399    -0.79100
C33         C  0.03370269  0.80686986  0.83491120     0.81600
N34         N  0.07289342  0.82325623  0.81846773    -0.79100
C35         C  0.07475363  0.83431117  0.77362152     0.81700
N36         N  0.03422472  0.83652465  0.74777276    -0.80800
C37         C  0.23778139  0.11466207  0.75524741     0.79200
N38         N  0.26096421  0.07374943  0.74959745    -0.79100
C39         C  0.23734331  0.03398884  0.75458861     0.81600
N40         N  0.19268172  0.03622366  0.76351565    -0.79100
C41         C  0.17015152  0.07557340  0.76945209     0.81700
N42         N  0.19283458  0.11451232  0.76560191    -0.80800
C43         C  0.99814797  0.80944730  0.23770811     0.79200
N44         N  0.00096223  0.83871280  0.27552026    -0.79100
C45         C  0.04120234  0.85771114  0.29105906     0.81600
N46         N  0.07971729  0.84601942  0.26863596    -0.79100
C47         C  0.07949091  0.81868786  0.22992463     0.81700
N48         N  0.03798054  0.79946702  0.21364134    -0.80800
C49         C  0.81925995  0.09358555  0.25631575     0.79200
N50         N  0.79551820  0.05310760  0.24883236    -0.79100
C51         C  0.81955912  0.01258480  0.25078024     0.81600
N52         N  0.86602127  0.01420417  0.25760909    -0.79100
C53         C  0.88839907  0.05387841  0.26600360     0.81700
N54         N  0.86444305  0.09249487  0.26665084    -0.80800
C55         C  0.00564841  0.25433554  0.26664637     0.79200
N56         N  0.04143459  0.28418485  0.25962063    -0.79100
C57         C  0.08640391  0.26827984  0.26361568     0.81600
N58         N  0.09302404  0.22663810  0.27716308    -0.79100
C59         C  0.05997786  0.19598968  0.26856946     0.81700
N60         N  0.01577116  0.20980702  0.26779604    -0.80800
Zr61       Zr  0.34142526  0.37945579  0.29277632     2.17500
O62         O  0.39239144  0.42777425  0.33993349    -0.52400
O63         O  0.32044593  0.45942431  0.27890195    -0.75600
O64         O  0.42470639  0.36940467  0.27122773    -0.82400
O65         O  0.24666891  0.35307763  0.38256991    -0.84100
O66         O  0.43768070  0.32881996  0.20354275    -0.79700
O67         O  0.31771567  0.38312179  0.37748504    -0.91400
O68         O  0.29390288  0.46483700  0.20587942    -0.77300
O69         O  0.33331176  0.38322019  0.21082960    -0.86800
O70         O  0.26148280  0.39074965  0.27672671    -0.86500
O71         O  0.36522585  0.30643232  0.25909811    -0.73300
O72         O  0.30266075  0.31561913  0.32084587    -0.85400
Zr73       Zr  0.23730314  0.25796186  0.18606415     2.26400
Zr74       Zr  0.35769666  0.31145389  0.17652105     2.06300
Zr75       Zr  0.22292992  0.32675354  0.30354292     2.10000
Zr76       Zr  0.25331213  0.39408217  0.19496859     1.78800
O77         O  0.19473016  0.26573609  0.34733288    -0.94200
O78         O  0.27053482  0.41879771  0.11892633    -0.42000
O79         O  0.21401468  0.33022658  0.22107766    -0.78600
O80         O  0.27686311  0.32340400  0.16072422    -0.97300
O81         O  0.31730325  0.24771248  0.20321624    -0.90600
O82         O  0.24514804  0.25433222  0.26835127    -0.93500
C83         C  0.30487730  0.48274530  0.24555235     1.00300
C84         C  0.28254738  0.37240097  0.40157893     1.13200
C85         C  0.45234107  0.34963260  0.24138703     1.04000
O86         O  0.38707346  0.36572124  0.12534145    -0.95600
O87         O  0.33458100  0.28555219  0.09724489    -0.91400
O88         O  0.26605048  0.24975847  0.10306632    -0.84500
C89         C  0.30021036  0.26307239  0.07895818     1.10600
O90         O  0.39163722  0.23937918  0.33731767    -0.97600
Zr91       Zr  0.32482446  0.24389079  0.28513056     1.88900
O92         O  0.26270208  0.17640085  0.19780687    -0.74300
O93         O  0.40357157  0.24712830  0.14858207    -0.53500
O94         O  0.38659506  0.19638370  0.25477250    -0.98200
O95         O  0.31005577  0.22471087  0.36352995    -0.55400
O96         O  0.29171882  0.16939823  0.27026635    -0.74800
C97         C  0.28030482  0.15206564  0.23028946     0.97600
O98         O  0.17518522  0.23706424  0.13023061    -0.63600
O99         O  0.16984672  0.37735142  0.34452229    -0.58400
O100        O  0.15703940  0.26210725  0.22121378    -0.95100
O101        O  0.14571582  0.32309516  0.27041889    -0.93500
O102        O  0.19393891  0.44488440  0.22481788    -0.93900
O103        O  0.18697364  0.39438333  0.14170440    -0.92600
C104        C  0.13058583  0.28788350  0.24793651     1.16400
H105        H  0.25002584  0.41780824  0.29249593     0.32400
H106        H  0.26994103  0.32772359  0.12867824     0.43200
H107        H  0.22710990  0.22970466  0.27816740     0.36700
H108        H  0.39568668  0.29755301  0.26859227     0.33200
H109        H  0.25583814  0.44885144  0.11747021     0.25000
H110        H  0.43517212  0.25866326  0.14648121     0.30900
H111        H  0.38599908  0.16883802  0.27226995     0.36800
H112        H  0.17160814  0.42487050  0.23831300     0.31300
H113        H  0.15413562  0.39491927  0.32076830     0.30200
H114        H  0.16087955  0.26793948  0.34470226     0.31900
H115        H  0.30989359  0.19131357  0.36228612     0.30800
H116        H  0.19062728  0.36695818  0.12091652     0.34800
H117        H  0.15124825  0.26047206  0.13518367     0.27600
H118        H  0.37147509  0.44926211  0.35626705     0.31800
H119        H  0.39730666  0.27093288  0.34916090     0.34600
H120        H  0.14581790  0.35765048  0.35568979     0.27300
H121        H  0.18551700  0.24189094  0.09887670     0.40100
H122        H  0.40307064  0.38888568  0.14589200     0.30200
H123        H  0.30387740  0.42516293  0.12049566     0.37800
H124        H  0.27776120  0.23358568  0.36842656     0.29700
H125        H  0.40533678  0.22686492  0.17433315     0.29700
H126        H  0.40742277  0.44607301  0.31743165     0.30000
C127        C  0.30017906  0.10557022  0.21784923     0.79200
N128        N  0.28512977  0.06379005  0.23112946    -0.79100
C129        C  0.30722185  0.02448897  0.21519277     0.81600
N130        N  0.34329423  0.02844782  0.18789117    -0.79100
C131        C  0.35645934  0.06844091  0.17265438     0.81700
N132        N  0.33642969  0.10653675  0.19035957    -0.80800
Zr133      Zr  0.33973028  0.75632335  0.28990013     2.17500
O134        O  0.39276364  0.69797241  0.31146073    -0.52400
O135        O  0.32565402  0.76760767  0.37605955    -0.75600
O136        O  0.42316481  0.77880376  0.28811323    -0.82400
O137        O  0.25248382  0.67229831  0.22732417    -0.84100
O138        O  0.43337930  0.85226293  0.27273681    -0.79700
O139        O  0.31606850  0.67582348  0.27533500    -0.91400
O140        O  0.25200916  0.78814604  0.38520018    -0.77300
O141        O  0.32785599  0.83246087  0.31701780    -0.86800
O142        O  0.25845187  0.76255234  0.29650797    -0.86500
O143        O  0.36423582  0.80103254  0.22790260    -0.73300
O144        O  0.30230974  0.73955606  0.21518319    -0.85400
Zr145      Zr  0.23571293  0.87100856  0.19165293     2.26400
Zr146      Zr  0.35357879  0.87782789  0.25706116     2.06300
Zr147      Zr  0.22157580  0.74775478  0.22208572     2.10000
Zr148      Zr  0.24647780  0.83913662  0.32393376     1.78800
O149        O  0.19851716  0.70358334  0.15205350    -0.94200
O150        O  0.28315848  0.88974529  0.38358979    -0.42000
O151        O  0.21014285  0.82422121  0.24992077    -0.78600
O152        O  0.27229615  0.88725064  0.26673390    -0.97300
O153        O  0.31621462  0.86148069  0.18297341    -0.90600
O154        O  0.24598169  0.79422642  0.16334362    -0.93500
C155        C  0.29072455  0.77700183  0.40215180     1.00300
C156        C  0.28420823  0.65382629  0.25134704     1.13200
C157        C  0.44936216  0.81267460  0.27999725     1.04000
O158        O  0.37349586  0.91981669  0.32945801    -0.95600
O159        O  0.33052346  0.95526985  0.24342889    -0.91400
O160        O  0.26055558  0.95408428  0.20562264    -0.84500
C161        C  0.29652177  0.97560996  0.22421859     1.10600
O162        O  0.35953438  0.70950443  0.14718452    -0.97600
Zr163      Zr  0.32649416  0.78486988  0.15543715     1.88900
O164        O  0.24824391  0.85990016  0.10565949    -0.74300
O165        O  0.40437364  0.91719244  0.20803944    -0.53500
O166        O  0.40394641  0.79465288  0.12891386    -0.98200
O167        O  0.29462273  0.74250104  0.08740154    -0.55400
O168        O  0.32119421  0.83773466  0.09598107    -0.74800
C169        C  0.28247222  0.84963710  0.07931634     0.97600
O170        O  0.17960125  0.91344315  0.15231191    -0.63600
O171        O  0.16607257  0.71014832  0.26768511    -0.58400
O172        O  0.15325550  0.84769132  0.20802437    -0.95100
O173        O  0.14250991  0.77179775  0.20665473    -0.93500
O174        O  0.17081665  0.82351014  0.35231168    -0.93900
O175        O  0.19910636  0.90576949  0.33722017    -0.92600
C176        C  0.12672017  0.81212843  0.21008725     1.16400
H177        H  0.24781947  0.74052942  0.31674287     0.32400
H178        H  0.26519767  0.91735513  0.27886271     0.43200
H179        H  0.22872633  0.78690727  0.13491629     0.36700
H180        H  0.39473823  0.79498211  0.21758726     0.33200
H181        H  0.26778928  0.88359579  0.41239004     0.25000
H182        H  0.43397586  0.92093949  0.22550365     0.30900
H183        H  0.40264065  0.78243877  0.09639457     0.36800
H184        H  0.17254505  0.83311049  0.38559225     0.31300
H185        H  0.17757755  0.67899168  0.27046739     0.30200
H186        H  0.16521079  0.70915334  0.14761161     0.31900
H187        H  0.28537672  0.71301581  0.09818282     0.30800
H188        H  0.20332643  0.91501262  0.37038014     0.34800
H189        H  0.20034964  0.92879123  0.13239553     0.27600
H190        H  0.41722036  0.71403590  0.33021844     0.31800
H191        H  0.37306949  0.70398992  0.17804953     0.34600
H192        H  0.16932159  0.72456778  0.29925533     0.27300
H193        H  0.16388889  0.89036450  0.13138009     0.40100
H194        H  0.39605772  0.94249582  0.32112890     0.30200
H195        H  0.31502048  0.87899117  0.38808788     0.37800
H196        H  0.32111005  0.73564215  0.06763979     0.29700
H197        H  0.41077071  0.89500557  0.18215445     0.29700
H198        H  0.40728384  0.68884923  0.28208212     0.30000
Zr199      Zr  0.84452467  0.24745302  0.20927714     2.17500
O200        O  0.88861235  0.20192658  0.15373430    -0.52400
O201        O  0.83022048  0.16742534  0.22966257    -0.75600
O202        O  0.92881386  0.25004660  0.23251548    -0.82400
O203        O  0.75869023  0.29286565  0.10797921    -0.84100
O204        O  0.93892887  0.28543632  0.30408291    -0.79700
O205        O  0.82644145  0.25920542  0.12689089    -0.91400
O206        O  0.76537758  0.15424088  0.26715380    -0.77300
O207        O  0.83084599  0.23962117  0.28843338    -0.86800
O208        O  0.76261944  0.24014468  0.21096429    -0.86500
O209        O  0.87225597  0.31697175  0.24853812    -0.73300
O210        O  0.80875676  0.31497209  0.18281418    -0.85400
Zr211      Zr  0.74613921  0.36717129  0.30726794     2.26400
Zr212      Zr  0.86075279  0.30781618  0.32888380     2.06300
Zr213      Zr  0.72666257  0.30905129  0.18576368     2.10000
Zr214      Zr  0.74875423  0.23206811  0.29049968     1.78800
O215        O  0.70055043  0.37067497  0.13971943    -0.94200
O216        O  0.76824410  0.19519404  0.36140421    -0.42000
O217        O  0.71561264  0.30069630  0.26590648    -0.78600
O218        O  0.77905618  0.29751646  0.33179853    -0.97300
O219        O  0.82664517  0.37578072  0.30190100    -0.90600
O220        O  0.75563207  0.37687644  0.22736037    -0.93500
C221        C  0.80221217  0.14045188  0.24863077     1.00300
C222        C  0.79771106  0.27522198  0.09688926     1.13200
C223        C  0.95500744  0.26548929  0.26714015     1.04000
O224        O  0.89332074  0.25554124  0.38249919    -0.95600
O225        O  0.83278241  0.32640722  0.40822551    -0.91400
O226        O  0.76648495  0.36295672  0.39043258    -0.84500
C227        C  0.79509990  0.34634819  0.42012325     1.10600
O228        O  0.89950517  0.37174336  0.16812824    -0.97600
Zr229      Zr  0.83700203  0.38332251  0.22129665     1.88900
O230        O  0.76424296  0.44766467  0.29399413    -0.74300
O231        O  0.90731082  0.37223001  0.35716998    -0.53500
O232        O  0.90605181  0.42824638  0.23807307    -0.98200
O233        O  0.80445328  0.41204013  0.15046442    -0.55400
O234        O  0.82350523  0.46107338  0.24854377    -0.74800
C235        C  0.79086040  0.47496309  0.27386154     0.97600
O236        O  0.70007008  0.41141119  0.36053629    -0.63600
O237        O  0.67621120  0.25423035  0.14418653    -0.58400
O238        O  0.66209891  0.35650888  0.28693190    -0.95100
O239        O  0.64714347  0.32481625  0.21470612    -0.93500
O240        O  0.67518114  0.20238429  0.26056449    -0.93900
O241        O  0.69095093  0.23812954  0.34929802    -0.92600
C242        C  0.63331596  0.34142177  0.25427419     1.16400
H243        H  0.75218328  0.21410488  0.19193756     0.32400
H244        H  0.77012577  0.28948025  0.36173532     0.43200
H245        H  0.73959795  0.40337633  0.21760349     0.36700
H246        H  0.90339060  0.32432028  0.24222220     0.33200
H247        H  0.76397094  0.16243151  0.35417541     0.25000
H248        H  0.93490339  0.35875528  0.37167449     0.30900
H249        H  0.90520086  0.45191647  0.21547137     0.36800
H250        H  0.68193318  0.18635287  0.23064999     0.31300
H251        H  0.65839543  0.24097446  0.16837653     0.30200
H252        H  0.66694945  0.37232961  0.14344191     0.31900
H253        H  0.81186597  0.38886936  0.12578661     0.30800
H254        H  0.68647373  0.27097074  0.35586315     0.34800
H255        H  0.72146087  0.43351780  0.37637802     0.27600
H256        H  0.90659769  0.18110079  0.17260170     0.31800
H257        H  0.89622682  0.39561162  0.14594296     0.34600
H258        H  0.65364174  0.27275364  0.12744032     0.27300
H259        H  0.68073052  0.42909681  0.33972877     0.40100
H260        H  0.89421203  0.22610211  0.36454913     0.30200
H261        H  0.80182943  0.19904911  0.36598172     0.37800
H262        H  0.82370269  0.43830766  0.14456050     0.29700
H263        H  0.91860846  0.38492239  0.32894360     0.29700
H264        H  0.91165651  0.22276354  0.14266067     0.30000
Zr265      Zr  0.73419991  0.76315927  0.31121276     2.17500
O266        O  0.67635106  0.70873826  0.32694258    -0.52400
O267        O  0.75406614  0.77455679  0.39616831    -0.75600
O268        O  0.75073162  0.67983193  0.30665813    -0.82400
O269        O  0.64334436  0.85365037  0.26289897    -0.84100
O270        O  0.81997593  0.66266848  0.27564496    -0.79700
O271        O  0.65235135  0.78755014  0.29769617    -0.91400
O272        O  0.80809375  0.82810860  0.41524172    -0.77300
O273        O  0.81464374  0.77016364  0.32677450    -0.86800
O274        O  0.74512037  0.84275349  0.32553693    -0.86500
O275        O  0.77069290  0.73358941  0.24240316    -0.73300
O276        O  0.71116037  0.79976668  0.24278560    -0.85400
Zr277      Zr  0.84115564  0.85258163  0.20365236     2.26400
Zr278      Zr  0.85189304  0.73828476  0.25896854     2.06300
Zr279      Zr  0.72279756  0.87966142  0.25613897     2.10000
Zr280      Zr  0.82599492  0.85014437  0.33990038     1.78800
O281        O  0.68102298  0.91273932  0.19233882    -0.94200
O282        O  0.89959352  0.83521874  0.37826874    -0.42000
O283        O  0.80345943  0.88322964  0.27058413    -0.78600
O284        O  0.86407001  0.81809992  0.27392037    -0.97300
O285        O  0.82822104  0.77384783  0.18940027    -0.90600
O286        O  0.76030666  0.84860143  0.18791562    -0.93500
C287        C  0.78092371  0.79736173  0.42593060     1.00300
C288        C  0.62691026  0.81785498  0.27893546     1.13200
C289        C  0.78103984  0.65064533  0.29147864     1.04000
O290        O  0.89845357  0.71273982  0.32343820    -0.95600
O291        O  0.93159303  0.76150635  0.24081117    -0.91400
O292        O  0.92394278  0.82814039  0.20619412    -0.84500
C293        C  0.94904911  0.79655762  0.22338430     1.10600
O294        O  0.68448873  0.71487114  0.16841496    -0.97600
Zr295      Zr  0.74693543  0.76910833  0.17496043     1.88900
O296        O  0.81938617  0.84093359  0.11887360    -0.74300
O297        O  0.87921550  0.68204458  0.20157313    -0.53500
O298        O  0.76647457  0.69576743  0.13835480    -0.98200
O299        O  0.67893871  0.79841532  0.13558107    -0.55400
O300        O  0.77293907  0.78116777  0.09947732    -0.74800
C301        C  0.79636547  0.81459771  0.08872917     0.97600
O302        O  0.89690982  0.90428828  0.17928956    -0.63600
O303        O  0.68626487  0.92862693  0.31504572    -0.58400
O304        O  0.82820892  0.93472190  0.22619242    -0.95100
O305        O  0.75858807  0.95556776  0.25221390    -0.93500
O306        O  0.79392276  0.91553600  0.38252474    -0.93900
O307        O  0.87986548  0.91277703  0.34052750    -0.92600
C308        C  0.79969183  0.96548404  0.24127014     1.16400
H309        H  0.72790143  0.85418761  0.35162682     0.32400
H310        H  0.89544648  0.82487757  0.28297323     0.43200
H311        H  0.75096264  0.86507333  0.16154238     0.36700
H312        H  0.76112857  0.70342600  0.23274063     0.33200
H313        H  0.89770991  0.85044872  0.40945649     0.25000
H314        H  0.88858695  0.69954413  0.17555677     0.30900
H315        H  0.80017687  0.69327110  0.14282355     0.36800
H316        H  0.78413416  0.93616553  0.35854737     0.31300
H317        H  0.70010056  0.95883299  0.31347821     0.30200
H318        H  0.70021694  0.93812778  0.18376080     0.31900
H319        H  0.69059326  0.81948900  0.11364466     0.30800
H320        H  0.86548294  0.93471970  0.32014901     0.34800
H321        H  0.87973068  0.93048509  0.16835897     0.27600
H322        H  0.66315023  0.70017681  0.29587019     0.31800
H323        H  0.65977563  0.73013265  0.18600178     0.34600
H324        H  0.65424567  0.93252864  0.30351173     0.27300
H325        H  0.91081915  0.91501339  0.20933345     0.40100
H326        H  0.92222335  0.73627520  0.32941546     0.30200
H327        H  0.89896534  0.80260958  0.38350870     0.37800
H328        H  0.66384404  0.81810218  0.15937826     0.29700
H329        H  0.90836656  0.67079721  0.21512212     0.29700
H330        H  0.65153172  0.72576164  0.34245020     0.30000
C331        C  0.30321052  0.24904319  0.02775322     0.79200
N332        N  0.31643311  0.20571267  0.01625094    -0.79100
C333        C  0.32547190  0.19191141  0.97185937     0.81600
N334        N  0.32004121  0.22105109  0.93877839    -0.79100
C335        C  0.30616080  0.26368404  0.94756097     0.81700
N336        N  0.29805129  0.27881844  0.99271701    -0.80800
Zr337      Zr  0.23944161  0.27680155  0.79497803     2.17500
O338        O  0.18529083  0.27015749  0.85646245    -0.52400
O339        O  0.23866804  0.19335822  0.77815172    -0.75600
O340        O  0.15874729  0.27329520  0.76653589    -0.82400
O341        O  0.33288047  0.31076295  0.89095896    -0.84100
O342        O  0.14906362  0.29762759  0.69417105    -0.79700
O343        O  0.26538768  0.27337975  0.87698259    -0.91400
O344        O  0.29374663  0.16647645  0.73018045    -0.77300
O345        O  0.25064845  0.25455563  0.71590854    -0.86800
O346        O  0.31844098  0.25675198  0.78965170    -0.86500
O347        O  0.21829186  0.34212424  0.75329126    -0.73300
O348        O  0.28176845  0.34409795  0.81987302    -0.85400
Zr349      Zr  0.35282809  0.36790194  0.69035354     2.26400
Zr350      Zr  0.22903066  0.31874004  0.67359331     2.06300
Zr351      Zr  0.36112530  0.32351558  0.81379108     2.10000
Zr352      Zr  0.33030939  0.23611832  0.71029434     1.78800
O353        O  0.39211580  0.38196821  0.86844686    -0.94200
O354        O  0.31529394  0.19104455  0.63806246    -0.42000
O355        O  0.37312246  0.30308729  0.73360115    -0.78600
O356        O  0.30957445  0.29994174  0.66728367    -0.97300
O357        O  0.27297248  0.38618353  0.69623150    -0.90600
O358        O  0.34195299  0.38799261  0.77024580    -0.93500
C359        C  0.25908262  0.16062885  0.75502537     1.00300
C360        C  0.29896020  0.28778208  0.90427779     1.13200
C361        C  0.13317382  0.28097303  0.73065223     1.04000
O362        O  0.20028742  0.25860011  0.61959727    -0.95600
O363        O  0.25522396  0.33102314  0.59555179    -0.91400
O364        O  0.32389802  0.36733448  0.60620878    -0.84500
C365        C  0.28941229  0.35204390  0.57981401     1.10600
O366        O  0.20595916  0.42201715  0.83446161    -0.97600
Zr367      Zr  0.26301184  0.40801907  0.77569108     1.88900
O368        O  0.35300697  0.45312938  0.70451644    -0.74300
O369        O  0.17987997  0.37787634  0.64421327    -0.53500
O370        O  0.19906674  0.44904594  0.74178351    -0.98200
O371        O  0.29492731  0.45737937  0.83893518    -0.55400
O372        O  0.29361283  0.47709945  0.74843904    -0.74800
C373        C  0.32886600  0.48505613  0.72520862     0.97600
O374        O  0.41335235  0.37534120  0.63544745    -0.63600
O375        O  0.40810217  0.26147804  0.84117422    -0.58400
O376        O  0.43381457  0.36643300  0.72442311    -0.95100
O377        O  0.44087207  0.33918622  0.79596429    -0.93500
O378        O  0.38999486  0.19484052  0.75067514    -0.93900
O379        O  0.39470005  0.22958570  0.65883504    -0.92600
C380        C  0.45817783  0.35635407  0.76102718     1.16400
H381        H  0.32586030  0.23215455  0.80887660     0.32400
H382        H  0.31647435  0.29035268  0.63596487     0.43200
H383        H  0.36139399  0.41300788  0.78097551     0.36700
H384        H  0.18674850  0.35048471  0.75818785     0.33200
H385        H  0.29198832  0.16838061  0.64455215     0.25000
H386        H  0.20105587  0.40247488  0.63762526     0.30900
H387        H  0.17711779  0.42555875  0.72961941     0.36800
H388        H  0.41544256  0.21669707  0.75605993     0.31300
H389        H  0.43920938  0.27401399  0.84760180     0.30200
H390        H  0.41595723  0.36638811  0.88668222     0.31900
H391        H  0.29102692  0.44088873  0.86711019     0.30800
H392        H  0.40755417  0.19900923  0.66226277     0.34800
H393        H  0.41298278  0.34659330  0.61622147     0.27600
H394        H  0.16640435  0.24326479  0.84731313     0.31800
H395        H  0.17853808  0.40465571  0.82306941     0.34600
H396        H  0.39690869  0.25547441  0.87196984     0.27300
H397        H  0.40227622  0.39831515  0.61443570     0.40100
H398        H  0.20702142  0.23036353  0.63497194     0.30200
H399        H  0.29887462  0.21157265  0.61755426     0.37800
H400        H  0.27341229  0.48325077  0.84190234     0.29700
H401        H  0.16876552  0.36558281  0.61340469     0.29700
H402        H  0.16408948  0.29616765  0.85429959     0.30000
Zr403      Zr  0.23439488  0.87695568  0.79758399     2.17500
O404        O  0.19128878  0.91898254  0.85422408    -0.52400
O405        O  0.23685689  0.95901695  0.78085588    -0.75600
O406        O  0.26082209  0.87115506  0.88004776    -0.82400
O407        O  0.13159487  0.83318542  0.71430989    -0.84100
O408        O  0.33150506  0.83802525  0.88345854    -0.79700
O409        O  0.15151051  0.85901196  0.78763802    -0.91400
O410        O  0.28770019  0.97542841  0.72756205    -0.77300
O411        O  0.31335923  0.88900113  0.78544941    -0.86800
O412        O  0.23506500  0.89080450  0.71749717    -0.86500
O413        O  0.27143625  0.80640982  0.81393908    -0.73300
O414        O  0.20426466  0.81079673  0.75540959    -0.85400
Zr415      Zr  0.32566540  0.76464418  0.68115768     2.26400
Zr416      Zr  0.35162877  0.81911791  0.80216022     2.06300
Zr417      Zr  0.20631225  0.82302468  0.67544253     2.10000
Zr418      Zr  0.31490355  0.90077620  0.70485099     1.78800
O419        O  0.15665164  0.76579753  0.63638472    -0.94200
O420        O  0.39295646  0.92756422  0.72465366    -0.42000
O421        O  0.28663139  0.83360750  0.66416184    -0.78600
O422        O  0.35428438  0.83267754  0.72135086    -0.97300
O423        O  0.32052528  0.75249625  0.76079767    -0.90600
O424        O  0.24557678  0.75367462  0.69154917    -0.93500
C425        C  0.25677212  0.98726663  0.75548510     1.00300
C426        C  0.12135978  0.84462102  0.75646314     1.13200
C427        C  0.29496603  0.85379826  0.90280649     1.04000
O428        O  0.40564780  0.87787976  0.82944737    -0.95600
O429        O  0.42719545  0.79696168  0.77018039    -0.91400
O430        O  0.40967213  0.76124365  0.70013405    -0.84500
C431        C  0.43900744  0.77756265  0.73122936     1.10600
O432        O  0.17291922  0.73601338  0.81819253    -0.97600
Zr433      Zr  0.24027940  0.74119176  0.77135080     1.88900
O434        O  0.32646876  0.68411429  0.70490155    -0.74300
O435        O  0.38298365  0.76026753  0.84895748    -0.53500
O436        O  0.25404513  0.70899613  0.84575194    -0.98200
O437        O  0.17950702  0.69909899  0.72799465    -0.55400
O438        O  0.27272323  0.66714409  0.75598791    -0.74800
C439        C  0.30708302  0.65642367  0.73167623     0.97600
O440        O  0.37317332  0.76748781  0.61382647    -0.63600
O441        O  0.16400183  0.87916197  0.63314750    -0.58400
O442        O  0.29090570  0.75673732  0.60078252    -0.95100
O443        O  0.23792335  0.81281611  0.59775660    -0.93500
O444        O  0.29318911  0.90167076  0.62333456    -0.93900
O445        O  0.35652167  0.95260319  0.65983228    -0.92600
C446        C  0.26742439  0.78594243  0.57827884     1.16400
H447        H  0.21632912  0.91605319  0.70893367     0.32400
H448        H  0.38458419  0.83797244  0.71103544     0.43200
H449        H  0.23456149  0.72834252  0.67184915     0.36700
H450        H  0.26600569  0.79762485  0.84454933     0.33200
H451        H  0.38974109  0.94633733  0.75376440     0.25000
H452        H  0.35579553  0.74703745  0.86250550     0.30900
H453        H  0.28420450  0.69368786  0.84350540     0.36800
H454        H  0.26398763  0.91884172  0.62269255     0.31300
H455        H  0.17835181  0.87906766  0.60275250     0.30200
H456        H  0.17574437  0.75017347  0.61273327     0.31900
H457        H  0.15236855  0.71929785  0.72880556     0.30800
H458        H  0.33608427  0.97896202  0.65615707     0.34800
H459        H  0.36167891  0.79359688  0.59741169     0.27600
H460        H  0.16902855  0.93395758  0.83386993     0.31800
H461        H  0.15602500  0.76466751  0.81477712     0.34600
H462        H  0.13341811  0.86548202  0.62631912     0.27300
H463        H  0.40412537  0.77796097  0.62423213     0.40100
H464        H  0.41784659  0.86815730  0.85945175     0.30200
H465        H  0.41255350  0.90213250  0.73362304     0.37800
H466        H  0.17164468  0.67412277  0.74733202     0.29700
H467        H  0.39360957  0.73635991  0.82645257     0.29700
H468        H  0.21257430  0.94339477  0.86563684     0.30000
Zr469      Zr  0.85022076  0.25841323  0.80473616     2.17500
O470        O  0.90733923  0.22479315  0.85561398    -0.52400
O471        O  0.83151374  0.17592148  0.79442664    -0.75600
O472        O  0.83197272  0.26429489  0.88808708    -0.82400
O473        O  0.93999275  0.30280631  0.71034056    -0.84100
O474        O  0.76104303  0.29208918  0.90473918    -0.79700
O475        O  0.92981821  0.26311769  0.77360026    -0.91400
O476        O  0.77762181  0.15611252  0.73900001    -0.77300
O477        O  0.76988859  0.24419397  0.79505028    -0.86800
O478        O  0.83793116  0.24524947  0.72359153    -0.86500
O479        O  0.81198917  0.32638081  0.83508561    -0.73300
O480        O  0.87415514  0.32618265  0.77030587    -0.85400
Zr481      Zr  0.74102131  0.36386277  0.71073895     2.26400
Zr482      Zr  0.73073323  0.31096823  0.82657138     2.06300
Zr483      Zr  0.85982909  0.31351475  0.68851098     2.10000
Zr484      Zr  0.75773876  0.23057829  0.71347254     1.78800
O485        O  0.90064968  0.37534058  0.65680601    -0.94200
O486        O  0.68469038  0.19451089  0.72576774    -0.42000
O487        O  0.77924470  0.29791716  0.67868960    -0.78600
O488        O  0.71722043  0.29587839  0.74473930    -0.97300
O489        O  0.75441685  0.37809829  0.79141989    -0.90600
O490        O  0.82106698  0.37981685  0.71930526    -0.93500
C491        C  0.80586571  0.14604166  0.77138439     1.00300
C492        C  0.95564740  0.27896083  0.74243395     1.13200
C493        C  0.80092765  0.27705872  0.91739202     1.04000
O494        O  0.68068111  0.25263412  0.85203064    -0.95600
O495        O  0.65197599  0.33831346  0.80352783    -0.91400
O496        O  0.66105148  0.37041727  0.73529763    -0.84500
C497        C  0.63607668  0.35989221  0.76886783     1.10600
O498        O  0.90117253  0.38787100  0.85365844    -0.97600
Zr499      Zr  0.83495997  0.39254679  0.80042258     1.88900
O500        O  0.75732620  0.44504528  0.72272398    -0.74300
O501        O  0.70586693  0.36908961  0.88345028    -0.53500
O502        O  0.81177716  0.42946025  0.87330057    -0.98200
O503        O  0.89660336  0.44109811  0.77814873    -0.55400
O504        O  0.80657066  0.46632527  0.78193188    -0.74800
C505        C  0.77959949  0.47531063  0.74824217     0.97600
O506        O  0.67994504  0.39546180  0.66293668    -0.63600
O507        O  0.89539355  0.25461054  0.63940257    -0.58400
O508        O  0.76091682  0.35199899  0.62864042    -0.95100
O509        O  0.83099956  0.32486404  0.60984024    -0.93500
O510        O  0.79050140  0.18363818  0.65101144    -0.93900
O511        O  0.70721112  0.23275258  0.64516234    -0.92600
C512        C  0.79097628  0.33923881  0.59845537     1.16400
H513        H  0.85590806  0.21969666  0.71235133     0.32400
H514        H  0.68519076  0.28972928  0.73778955     0.43200
H515        H  0.82969858  0.40554097  0.70279039     0.36700
H516        H  0.82054985  0.33596218  0.86640166     0.33200
H517        H  0.68723654  0.16398659  0.71023921     0.25000
H518        H  0.73405193  0.37795824  0.90165642     0.30900
H519        H  0.78038027  0.44085737  0.86692278     0.36800
H520        H  0.79264906  0.20373163  0.62524435     0.31300
H521        H  0.86950113  0.23656156  0.62541505     0.30200
H522        H  0.92039416  0.38816772  0.68270081     0.31900
H523        H  0.92377379  0.42115525  0.77491367     0.30800
H524        H  0.69179025  0.26253131  0.64832914     0.34800
H525        H  0.69250354  0.42400498  0.65282673     0.27600
H526        H  0.92957075  0.20886151  0.83531388     0.31800
H527        H  0.88852180  0.38330046  0.88420239     0.34600
H528        H  0.90757563  0.27056165  0.61350958     0.27300
H529        H  0.67711157  0.37535481  0.63451263     0.40100
H530        H  0.69396240  0.22379514  0.83967287     0.30200
H531        H  0.68532086  0.18927268  0.75908094     0.37800
H532        H  0.90373778  0.46131767  0.80585848     0.29700
H533        H  0.69839222  0.39564166  0.86558114     0.29700
H534        H  0.89075803  0.20000891  0.86906004     0.30000
Zr535      Zr  0.83811318  0.86359351  0.80606945     2.17500
O536        O  0.87600023  0.92723229  0.84727441    -0.52400
O537        O  0.91984939  0.84617671  0.78606433    -0.75600
O538        O  0.83907349  0.84752477  0.88955435    -0.82400
O539        O  0.77909355  0.95568301  0.72751280    -0.84100
O540        O  0.81305942  0.77687857  0.90154854    -0.79700
O541        O  0.81927900  0.94287001  0.79350066    -0.91400
O542        O  0.93181229  0.81915208  0.71342827    -0.77300
O543        O  0.85863478  0.78657301  0.79142145    -0.86800
O544        O  0.84275985  0.85675559  0.72447965    -0.86500
O545        O  0.77449264  0.82157756  0.83285618    -0.73300
O546        O  0.76373113  0.88323095  0.77468111    -0.85400
Zr547      Zr  0.72827381  0.75131594  0.70848584     2.26400
Zr548      Zr  0.79708876  0.74367534  0.82187767     2.06300
Zr549      Zr  0.76840759  0.87597271  0.69263244     2.10000
Zr550      Zr  0.86152954  0.77870068  0.70860728     1.78800
O551        O  0.69802591  0.90960509  0.66287841    -0.94200
O552        O  0.91596841  0.72189816  0.73406669    -0.42000
O553        O  0.78718266  0.79803728  0.68311660    -0.78600
O554        O  0.80373541  0.73384411  0.73932613    -0.97300
O555        O  0.72236325  0.76150651  0.78937107    -0.90600
O556        O  0.70699260  0.82945338  0.71913758    -0.93500
C557        C  0.94683401  0.83282086  0.75294337     1.00300
C558        C  0.79920040  0.97004818  0.76616162     1.13200
C559        C  0.82570935  0.81702479  0.91647188     1.04000
O560        O  0.86478359  0.70506030  0.85148545    -0.95600
O561        O  0.78692483  0.66346005  0.79352385    -0.91400
O562        O  0.74205354  0.67327868  0.72952087    -0.84500
C563        C  0.76478954  0.64789514  0.75679747     1.10600
O564        O  0.69980644  0.89612079  0.86537219    -0.97600
Zr565      Zr  0.70157207  0.83944831  0.80087125     1.88900
O566        O  0.64525673  0.75749728  0.72445654    -0.74300
O567        O  0.74139143  0.70703139  0.86763543    -0.53500
O568        O  0.66826502  0.81134247  0.86933247    -0.98200
O569        O  0.65655575  0.90362283  0.77656013    -0.55400
O570        O  0.62642563  0.80763057  0.78271059    -0.74800
C571        C  0.61546951  0.77888282  0.74987335     0.97600
O572        O  0.69087293  0.69583060  0.65418220    -0.63600
O573        O  0.81590168  0.91792094  0.64264960    -0.58400
O574        O  0.74622417  0.76520525  0.62729995    -0.95100
O575        O  0.76591640  0.83723523  0.61353767    -0.93500
O576        O  0.88761156  0.79562295  0.63276566    -0.93900
O577        O  0.85785483  0.71813177  0.64795612    -0.92600
C578        C  0.75869167  0.79545279  0.59972187     1.16400
H579        H  0.86591157  0.87662755  0.71419262     0.32400
H580        H  0.81531560  0.70453081  0.72948512     0.43200
H581        H  0.67812262  0.83569325  0.70352017     0.36700
H582        H  0.76541357  0.82995693  0.86361824     0.33200
H583        H  0.94490068  0.72847035  0.71892473     0.25000
H584        H  0.76009072  0.68872247  0.88859504     0.30900
H585        H  0.63868869  0.82756826  0.87272418     0.36800
H586        H  0.91831844  0.78137972  0.63023994     0.31300
H587        H  0.83821963  0.93469280  0.66358722     0.30200
H588        H  0.68731523  0.92971023  0.68882871     0.31900
H589        H  0.67756160  0.92975934  0.78111918     0.30800
H590        H  0.82565863  0.70761638  0.64705783     0.34800
H591        H  0.71588041  0.67602430  0.64251188     0.27600
H592        H  0.89968815  0.93697230  0.82639412     0.31800
H593        H  0.73230679  0.90415611  0.87248735     0.34600
H594        H  0.83472038  0.89471002  0.62606297     0.27300
H595        H  0.67237342  0.67649963  0.67299889     0.40100
H596        H  0.88928357  0.72815341  0.85377909     0.30200
H597        H  0.92253639  0.72980015  0.76721804     0.37800
H598        H  0.63335222  0.90888742  0.80043912     0.29700
H599        H  0.72870251  0.73170500  0.88797330     0.29700
H600        H  0.89327810  0.91316566  0.87225568     0.30000
C601        C  0.56918306  0.78176065  0.72800765     0.79200
N602        N  0.52627377  0.77642623  0.74564611    -0.79100
C603        C  0.48799878  0.78093382  0.71643120     0.81600
N604        N  0.49410624  0.79214918  0.67178159    -0.79100
C605        C  0.53701806  0.79915755  0.65652980     0.81700
N606        N  0.57253234  0.79410496  0.68515272    -0.80800
C607        C  0.34391572  0.53399180  0.72536599     0.79200
N608        N  0.31397636  0.57005987  0.73246694    -0.79100
C609        C  0.33173041  0.61307854  0.73998889     0.81600
N610        N  0.37747092  0.61799919  0.74410387    -0.79100
C611        C  0.40443144  0.58670128  0.72327562     0.81700
N612        N  0.38860359  0.54339282  0.71725005    -0.80800
C613        C  0.58794603  0.37936113  0.76793967     0.79200
N614        N  0.54773733  0.35455021  0.77080134    -0.79100
C615        C  0.50574851  0.37638619  0.76658696     0.81600
N616        N  0.50553899  0.42075568  0.76128647    -0.79100
C617        C  0.54348009  0.44470874  0.75444500     0.81700
N618        N  0.58474789  0.42358223  0.75721386    -0.80800
C619        C  0.77792854  0.52120972  0.73129193     0.79200
N620        N  0.77302679  0.52135061  0.68490344    -0.79100
C621        C  0.76827212  0.55984845  0.66356991     0.81600
N622        N  0.76749988  0.59896872  0.68915540    -0.79100
C623        C  0.77153161  0.60112018  0.73575422     0.81700
N624        N  0.77709041  0.56155928  0.75798135    -0.80800
C625        C  0.58304057  0.33818208  0.26831439     0.79200
N626        N  0.57808888  0.33325156  0.31421802    -0.79100
C627        C  0.53633603  0.33029580  0.33300541     0.81600
N628        N  0.49896393  0.33313461  0.30551251    -0.79100
C629        C  0.50040278  0.34082345  0.26064960     0.81700
N630        N  0.54323680  0.34288794  0.24049886    -0.80800
C631        C  0.77245818  0.52171732  0.27002766     0.79200
N632        N  0.79263195  0.56342472  0.28179612    -0.79100
C633        C  0.76460583  0.60172693  0.28476927     0.81600
N634        N  0.71804632  0.59602846  0.27927207    -0.79100
C635        C  0.69996158  0.55517238  0.26505925     0.81700
N636        N  0.72771587  0.51983637  0.25928692    -0.80800
C637        C  0.57912101  0.80349383  0.26365776     0.79200
N638        N  0.57780174  0.76871601  0.23105967    -0.79100
C639        C  0.53779290  0.75011104  0.21472635     0.81600
N640        N  0.49825245  0.76614620  0.23246230    -0.79100
C641        C  0.49716312  0.80055681  0.26518780     0.81700
N642        N  0.53822035  0.82029085  0.28120348    -0.80800
C643        C  0.28391019  0.52712170  0.25799841     0.79200
N644        N  0.29851308  0.56866354  0.24553906    -0.79100
C645        C  0.27430111  0.60650226  0.26062424     0.81600
N646        N  0.23795730  0.60212457  0.28761784    -0.79100
C647        C  0.22495847  0.56172550  0.30157380     0.81700
N648        N  0.24719673  0.52460732  0.28471551    -0.80800
C649        C  0.78688023  0.78007886  0.47271052     0.79200
N650        N  0.79493933  0.73531451  0.47139816    -0.79100
C651        C  0.77699273  0.71087200  0.50357164     0.81600
N652        N  0.77084186  0.73138249  0.54583654    -0.79100
C653        C  0.76995179  0.77720584  0.55200990     0.81700
N654        N  0.77451260  0.80230414  0.51382764    -0.80800
C655        C  0.77587755  0.34500630  0.46770497     0.79200
N656        N  0.73008972  0.35296489  0.46784332    -0.79100
C657        C  0.70614500  0.35406381  0.50651225     0.81600
N658        N  0.72810015  0.34719559  0.54639161    -0.79100
C659        C  0.77372602  0.33968333  0.54936628     0.81700
N660        N  0.79900357  0.33850212  0.50943823    -0.80800
C661        C  0.29853189  0.79174465  0.45187901     0.79200
N662        N  0.32284805  0.82990748  0.45724386    -0.79100
C663        C  0.32958177  0.85314256  0.49811869     0.81600
N664        N  0.30969613  0.83761404  0.53548674    -0.79100
C665        C  0.28404340  0.79938223  0.53255919     0.81700
N666        N  0.27761403  0.77586464  0.48992805    -0.80800
C667        C  0.27903171  0.38709101  0.45330164     0.79200
N668        N  0.25640187  0.42701672  0.46395330    -0.79100
C669        C  0.24354779  0.43835949  0.50805860     0.81600
N670        N  0.25400946  0.41010904  0.54104953    -0.79100
C671        C  0.27931118  0.37301660  0.53434541     0.81700
N672        N  0.29131248  0.35974136  0.48945166    -0.80800
O673        O  0.96079717  0.01623936  0.11333626    -0.87500
O674        O  0.16229867  0.88624014  0.00516366    -0.87700
O675        O  0.02258707  0.88130152  0.03220749    -0.89400
O676        O  0.07749386  0.92526002  0.16221239    -0.88100
O677        O  0.12875859  0.97803903  0.19393481    -0.87700
O678        O  0.00644464  0.92336356  0.97014874    -0.89100
O679        O  0.10610828  0.86443791  0.05272958    -0.87600
O680        O  0.98792253  0.94711154  0.09104978    -0.87100
Zr681      Zr  0.06763737  0.93403837  0.07867333     2.84300
O682        O  0.14358986  0.95686111  0.08496583    -1.09100
O683        O  0.02109024  0.98739017  0.04270384    -1.09900
C684        C  0.95535034  0.97403781  0.10261658     1.05600
C685        C  0.13647074  0.85633773  0.02196380     1.05500
C686        C  0.00439503  0.88655339  0.99225660     1.08500
C687        C  0.09740713  0.94795005  0.19695372     1.06300
H688        H  0.08960598  0.91754592  0.98457715     0.31800
O689        O  0.09208724  0.94452205  0.00442299    -1.30100
H690        H  0.05080962  0.99850252  0.14559435     0.31500
O691        O  0.06645417  0.00331021  0.11788005    -1.31800
O692        O  0.22815019  0.01040478  0.97895829    -0.87500
O693        O  0.01212983  0.13680632  0.06490070    -0.89000
O694        O  0.08309832  0.95928382  0.90788407    -0.87600
O695        O  0.22575650  0.00577716  0.12499434    -0.87700
O696        O  0.09958213  0.04909551  0.19810265    -0.87400
O697        O  0.96739824  0.02506738  0.96840871    -0.87200
O698        O  0.09495413  0.10861701  0.94534195    -0.87500
O699        O  0.16002779  0.14404346  0.08272278    -0.87000
O700        O  0.04301139  0.05573580  0.91604450    -0.88100
O701        O  0.18888605  0.09277500  0.12727903    -0.87200
O702        O  0.15782614  0.97168702  0.92626798    -0.87600
O703        O  0.95127395  0.06555122  0.03561363    -0.87300
O704        O  0.06197279  0.08942943  0.14980628    -0.87000
O705        O  0.23940864  0.96835616  0.05479499    -0.87400
O706        O  0.20331758  0.08448364  0.98454292    -0.87700
O707        O  0.07480553  0.15745656  0.02509750    -0.89000
Zr708      Zr  0.16741855  0.96848065  0.01020978     2.83100
Zr709      Zr  0.02153890  0.05822065  0.08243347     2.83500
Zr710      Zr  0.04505049  0.99703147  0.97029128     2.84100
Zr711      Zr  0.14391308  0.02486521  0.13057447     2.83400
Zr712      Zr  0.12672813  0.09251022  0.02066660     2.84200
O713        O  0.09815519  0.07983606  0.09345291    -1.09600
O714        O  0.12073673  0.02348843  0.97856944    -1.09100
C715        C  0.23312872  0.05275296  0.97387409     1.05600
C716        C  0.03444433  0.16429252  0.04124701     1.08200
C717        C  0.12227280  0.97431651  0.89873265     1.05700
C718        C  0.25199892  0.99232698  0.09149867     1.06100
C719        C  0.06349717  0.07131963  0.18808544     1.05700
C720        C  0.94032916  0.04808680  0.99504206     1.05200
C721        C  0.06424990  0.09371152  0.91528779     1.05600
C722        C  0.16892044  0.13034296  0.12334627     1.05200
H723        H  0.03120013  0.08663075  0.99611937     0.31800
O724        O  0.05087052  0.06595885  0.01145358    -1.30700
H725        H  0.19773361  0.04705050  0.05742493     0.31900
O726        O  0.16705311  0.03581450  0.05585806    -1.32100
O727        O  0.53048164  0.75423258  0.45774928    -0.87500
O728        O  0.49292425  0.54577209  0.58174664    -0.87700
O729        O  0.47376059  0.71118204  0.57082779    -0.89400
O730        O  0.60180753  0.62898979  0.55924175    -0.88100
O731        O  0.63030836  0.59126698  0.49501698    -0.87700
O732        O  0.40193977  0.70129318  0.54685520    -0.89100
O733        O  0.52709596  0.61044256  0.61027629    -0.87600
O734        O  0.54248495  0.73186603  0.53099861    -0.87100
Zr735      Zr  0.52359574  0.65272647  0.54012290     2.84300
O736        O  0.53502225  0.57876381  0.51355673    -1.09100
O737        O  0.48465774  0.63764357  0.46878947    -1.09900
C738        C  0.54228647  0.76171960  0.50030294     1.05600
C739        C  0.51273715  0.56985439  0.61443255     1.05500
C740        C  0.43271434  0.70113061  0.57917199     1.08500
C741        C  0.63278115  0.60569042  0.53757695     1.06300
H742        H  0.43689831  0.61228323  0.56357632     0.31800
O743        O  0.45145507  0.61571252  0.53504455    -1.30100
H744        H  0.58752114  0.67524175  0.47536466     0.31500
O745        O  0.55884390  0.65936822  0.47013906    -1.31800
O746        O  0.44366698  0.47294326  0.46026811    -0.87500
O747        O  0.50333496  0.67450135  0.32969028    -0.89000
O748        O  0.34912150  0.60323043  0.50840380    -0.87600
O749        O  0.58053941  0.50993512  0.46534938    -0.87700
O750        O  0.61552458  0.61853501  0.39187728    -0.87400
O751        O  0.41128638  0.73188298  0.47963424    -0.87200
O752        O  0.36330170  0.57942296  0.37827200    -0.87500
O753        O  0.49773924  0.53360886  0.32590462    -0.87000
O754        O  0.34098926  0.63755760  0.42829538    -0.88100
O755        O  0.56492822  0.54290240  0.36790268    -0.87200
O756        O  0.38396800  0.53781380  0.52848771    -0.87600
O757        O  0.46095097  0.75267544  0.42661507    -0.87300
O758        O  0.58810870  0.68962470  0.39230398    -0.87000
O759        O  0.52354735  0.48466649  0.50964967    -0.87400
O760        O  0.44670737  0.49194889  0.38500760    -0.87700
O761        O  0.46057045  0.61169326  0.30693735    -0.89000
Zr762      Zr  0.46371540  0.54216163  0.50395128     2.83100
Zr763      Zr  0.50789612  0.68624212  0.41324196     2.83500
Zr764      Zr  0.40679076  0.65035174  0.47855153     2.84100
Zr765      Zr  0.56600891  0.58407734  0.44143016     2.83400
Zr766      Zr  0.44759283  0.57569616  0.37891445     2.84200
O767        O  0.51886904  0.61388185  0.38467126    -1.09600
O768        O  0.41323981  0.57500642  0.45110493    -1.09100
C769        C  0.44990903  0.46326641  0.41725114     1.05600
C770        C  0.48691104  0.64501367  0.29894456     1.08200
C771        C  0.34839060  0.56372526  0.52392515     1.05700
C772        C  0.56359167  0.48179485  0.49199792     1.06100
C773        C  0.62131380  0.66095880  0.39508394     1.05700
C774        C  0.43266609  0.76171653  0.45865564     1.05200
C775        C  0.33254758  0.60393048  0.39948142     1.05600
C776        C  0.54135995  0.52791689  0.33191315     1.05200
H777        H  0.41292515  0.66850032  0.38493259     0.31800
O778        O  0.43452612  0.65341218  0.40410488    -1.30700
H779        H  0.50916983  0.51953059  0.42419194     0.31900
O780        O  0.49760328  0.54822039  0.43426445    -1.32100
C781        C  0.23125561  0.48503179  0.52577191    -0.07200
C782        C  0.25207240  0.49589865  0.56928039    -0.18300
C783        C  0.29371764  0.51877163  0.56943169     0.10000
C784        C  0.30247865  0.54578071  0.53266588    -0.07100
C785        C  0.26607617  0.55188276  0.50038942    -0.18300
C786        C  0.23001355  0.52039900  0.49634285     0.10100
S787        S  0.33552296  0.50843162  0.61325061    -0.33300
S788        S  0.17747786  0.53267679  0.46570266    -0.33300
H789        H  0.15601987  0.49176526  0.47429824     0.28100
H790        H  0.32119131  0.46412094  0.61956480     0.28100
H791        H  0.24575648  0.47487517  0.59759055     0.18700
H792        H  0.26650712  0.57950986  0.47814467     0.18700
C793        C  0.42523612  0.80909066  0.47492594    -0.07200
C794        C  0.42065693  0.81936230  0.52273749    -0.18300
C795        C  0.40071684  0.86080129  0.53697469     0.10000
C796        C  0.37250768  0.88037593  0.50396444    -0.07100
C797        C  0.39508514  0.88381498  0.46215506    -0.18300
C798        C  0.41907665  0.84497114  0.44520471     0.10100
S799        S  0.39986151  0.88062082  0.59624910    -0.33300
S800        S  0.43681482  0.84045196  0.38678815    -0.33300
H801        H  0.43914885  0.88731223  0.38262202     0.28100
H802        H  0.38799022  0.92464229  0.58470232     0.28100
H803        H  0.43209616  0.79594232  0.54775556     0.18700
H804        H  0.38403291  0.90900862  0.43877470     0.18700
C805        C  0.66773818  0.38471761  0.50907542    -0.07200
C806        C  0.62229977  0.36970304  0.51068816    -0.18300
C807        C  0.58588682  0.40094902  0.50911106     0.10000
C808        C  0.59640397  0.44675438  0.50447404    -0.07100
C809        C  0.64231379  0.46095500  0.50712511    -0.18300
C810        C  0.67786067  0.43088585  0.51026540     0.10100
S811        S  0.52735744  0.38194444  0.51036736    -0.33300
S812        S  0.73628343  0.45210814  0.51428577    -0.33300
H813        H  0.72598483  0.49842605  0.51364414     0.28100
H814        H  0.53731070  0.33545185  0.50745145     0.28100
H815        H  0.61559353  0.33396356  0.51178842     0.18700
H816        H  0.65064209  0.49626890  0.50536915     0.18700
C817        C  0.73575788  0.68988292  0.48233148    -0.07200
C818        C  0.69815671  0.71957370  0.47996439    -0.18300
C819        C  0.66743995  0.71659102  0.44290944     0.10000
C820        C  0.66572834  0.67637642  0.41489281    -0.07100
C821        C  0.70205298  0.64501476  0.41796358    -0.18300
C822        C  0.73832416  0.65265597  0.45021911     0.10100
S823        S  0.63421184  0.76620495  0.43021975    -0.33300
S824        S  0.78739670  0.61545840  0.45067730    -0.33300
H825        H  0.76974936  0.58320332  0.41726343     0.28100
H826        H  0.66430361  0.79781725  0.45305110     0.28100
H827        H  0.69677940  0.74962047  0.50280770     0.18700
H828        H  0.70170138  0.61464760  0.39542311     0.18700
C829        C  0.28445526  0.58988729  0.39277716    -0.07200
C830        C  0.27485188  0.54326526  0.38952351    -0.18300
C831        C  0.23112040  0.52915723  0.37361919     0.10000
C832        C  0.20590801  0.56039610  0.34853939    -0.07100
C833        C  0.20450911  0.60325414  0.37197713    -0.18300
C834        C  0.24643797  0.62014646  0.39158462     0.10100
S835        S  0.21751365  0.47031411  0.36885052    -0.33300
S836        S  0.25073782  0.67825934  0.41250751    -0.33300
H837        H  0.20558193  0.69075837  0.40021556     0.28100
H838        H  0.17373638  0.47684949  0.34838320     0.28100
H839        H  0.30082386  0.51865719  0.39814662     0.18700
H840        H  0.17643266  0.62598548  0.36472158     0.18700
C841        C  0.53768729  0.70462299  0.19009843    -0.07200
C842        C  0.56870712  0.67598219  0.21123738    -0.18300
C843        C  0.55212430  0.65216192  0.24716810     0.10000
C844        C  0.50408289  0.64907196  0.25229123    -0.07100
C845        C  0.47509767  0.66064960  0.21515835    -0.18300
C846        C  0.49397268  0.68575200  0.18085043     0.10100
S847        S  0.59184098  0.63449835  0.29071366    -0.33300
S848        S  0.46028225  0.70153671  0.13183338    -0.33300
H849        H  0.49381518  0.73003190  0.11555799     0.28100
H850        H  0.63060456  0.63492910  0.26324421     0.28100
H851        H  0.60490725  0.68347779  0.21120485     0.18700
H852        H  0.43865783  0.65387615  0.21473028     0.18700
C853        C  0.65359397  0.54164821  0.27528469    -0.07200
C854        C  0.61720990  0.54143544  0.24225274    -0.18300
C855        C  0.57391196  0.52511674  0.25398306     0.10000
C856        C  0.56994356  0.50497966  0.29635343    -0.07100
C857        C  0.61060399  0.48890161  0.31656230    -0.18300
C858        C  0.64950476  0.51554977  0.31376871     0.10100
S859        S  0.52398688  0.53189894  0.21710524    -0.33300
S860        S  0.69096626  0.52088349  0.36163584    -0.33300
H861        H  0.66357266  0.50151745  0.39412438     0.28100
H862        H  0.54808795  0.54523668  0.17907234     0.28100
H863        H  0.62161376  0.55694242  0.20995666     0.18700
H864        H  0.60787236  0.46952097  0.34656775     0.18700
C865        C  0.52912208  0.34516356  0.38160584    -0.07200
C866        C  0.48450972  0.33909740  0.39778658    -0.18300
C867        C  0.45746403  0.37694306  0.41145424     0.10000
C868        C  0.47495455  0.42057691  0.40644001    -0.07100
C869        C  0.52218406  0.42456537  0.39924002    -0.18300
C870        C  0.54984452  0.38650554  0.39389147     0.10100
S871        S  0.40197588  0.36937963  0.43478555    -0.33300
S872        S  0.61088070  0.39244775  0.39681664    -0.33300
H873        H  0.61974642  0.34614111  0.40070154     0.28100
H874        H  0.40196522  0.32191698  0.43014449     0.28100
H875        H  0.46897062  0.30600584  0.39339844     0.18700
H876        H  0.53855994  0.45696054  0.39995135     0.18700
C877        C  0.74480927  0.55901319  0.61858070    -0.07200
C878        C  0.70336495  0.53529199  0.61569287    -0.18300
C879        C  0.66628710  0.55091886  0.58999197     0.10000
C880        C  0.67156484  0.58924745  0.56460436    -0.07100
C881        C  0.71456800  0.60926950  0.56285187    -0.18300
C882        C  0.75168577  0.59395936  0.58908281     0.10100
S883        S  0.61149454  0.52401736  0.59338058    -0.33300
S884        S  0.80615225  0.62179900  0.58653080    -0.33300
H885        H  0.83201472  0.58621156  0.60418421     0.28100
H886        H  0.62737259  0.48519198  0.61441051     0.28100
H887        H  0.69786483  0.50852037  0.63855013     0.18700
H888        H  0.71855315  0.63806992  0.54303850     0.18700
C889        C  0.53571841  0.48637669  0.72892254    -0.07200
C890        C  0.49328082  0.48770339  0.70502923    -0.18300
C891        C  0.48681764  0.51250682  0.66726084     0.10000
C892        C  0.51839895  0.54654596  0.65812669    -0.07100
C893        C  0.55831545  0.55133718  0.68695965    -0.18300
C894        C  0.56878755  0.51932775  0.72021407     0.10100
S895        S  0.44174241  0.49130064  0.62819939    -0.33300
S896        S  0.62413617  0.52026756  0.74967390    -0.33300
H897        H  0.64651380  0.54366914  0.71624765     0.28100
H898        H  0.46453733  0.44974251  0.62015985     0.28100
H899        H  0.46621306  0.46396643  0.71048174     0.18700
H900        H  0.58324413  0.57685983  0.68034493     0.18700
C901        C  0.42177084  0.60744396  0.68287550    -0.07200
C902        C  0.38742192  0.61167124  0.64830270    -0.18300
C903        C  0.38493337  0.64909107  0.62214235     0.10000
C904        C  0.42394654  0.67669265  0.62080122    -0.07100
C905        C  0.45929399  0.67264337  0.65457307    -0.18300
C906        C  0.45679230  0.64015842  0.68757169     0.10100
S907        S  0.33093702  0.66150823  0.59296884    -0.33300
S908        S  0.49636028  0.64200521  0.73669070    -0.33300
H909        H  0.52621890  0.67408114  0.72042181     0.28100
H910        H  0.30347060  0.63074120  0.61452560     0.28100
H911        H  0.35746103  0.59067461  0.64819471     0.18700
H912        H  0.48854077  0.69499989  0.65526101     0.18700
C913        C  0.54796703  0.80982553  0.60908799    -0.07200
C914        C  0.51641451  0.83313352  0.58197210    -0.18300
C915        C  0.52489985  0.83621507  0.53492499     0.10000
C916        C  0.55823780  0.80761383  0.51555905    -0.07100
C917        C  0.59777474  0.80496812  0.54303423    -0.19100
C918        C  0.59216488  0.80008153  0.59002431     0.10100
S919        S  0.50941821  0.88596243  0.50578824    -0.33300
S920        S  0.64046010  0.77723467  0.62103817    -0.33300
H921        H  0.66236215  0.75643105  0.58285637     0.28100
H922        H  0.48780583  0.90807994  0.54347261     0.28100
H923        H  0.48851278  0.85124053  0.59805415     0.18700
H924        H  0.62907825  0.79352510  0.52726359     0.18700
C925        C  0.27729434  0.06650394  0.95625952    -0.07200
C926        C  0.31560116  0.07158260  0.98641282    -0.18300
C927        C  0.34221801  0.11073222  0.98611997     0.10000
C928        C  0.32786162  0.14387903  0.95652759    -0.07100
C929        C  0.30199726  0.12973187  0.91655059    -0.18300
C930        C  0.27780491  0.08938821  0.91608951     0.10100
S931        S  0.39683061  0.11449761  0.01684522    -0.33300
S932        S  0.25814739  0.06092107  0.86341007    -0.33300
H933        H  0.28931533  0.08315464  0.83675130     0.28100
H934        H  0.40857758  0.15697317  0.00190666     0.28100
H935        H  0.32407517  0.04576464  0.00962917     0.18700
H936        H  0.29696123  0.15135987  0.88811484     0.18700
C937        C  0.36842975  0.06772568  0.12318798    -0.07200
C938        C  0.37809555  0.02399612  0.10412993    -0.18300
C939        C  0.34003234  0.99582206  0.09175153     0.10000
C940        C  0.29597037  0.01606195  0.09043606    -0.07100
C941        C  0.29344990  0.06344661  0.08933598    -0.18300
C942        C  0.33270467  0.08930638  0.09927924     0.10100
S943        S  0.34735750  0.93598888  0.08431980    -0.33300
S944        S  0.32694729  0.14982992  0.10201704    -0.33300
H945        H  0.37308685  0.15765626  0.11582059     0.28100
H946        H  0.39515943  0.93545133  0.09263875     0.28100
H947        H  0.41128150  0.00917408  0.11155184     0.18700
H948        H  0.26154312  0.08049952  0.08213124     0.18700
C949        C  0.07567468  0.16633761  0.23072088    -0.07200
C950        C  0.11582504  0.14285808  0.24121411    -0.18300
C951        C  0.14769002  0.13182166  0.20777031     0.10000
C952        C  0.14203384  0.14833956  0.16296076    -0.07100
C953        C  0.10279927  0.17413448  0.15327933    -0.18300
C954        C  0.06835255  0.18015777  0.18521656     0.10100
S955        S  0.19045869  0.09128423  0.22284737    -0.33300
S956        S  0.01497020  0.20354380  0.16495100    -0.33300
H957        H  0.98783514  0.17596383  0.19050919     0.28100
H958        H  0.17016029  0.07611458  0.26229526     0.28100
H959        H  0.12269779  0.13430366  0.27650937     0.18700
H960        H  0.09629975  0.18550285  0.11899391     0.18700
C961        C  0.93461928  0.05821024  0.24968948    -0.07200
C962        C  0.97402788  0.05213057  0.27783186    -0.18300
C963        C  0.01799570  0.05829508  0.26024686     0.10000
C964        C  0.02130946  0.07150271  0.21453487    -0.07100
C965        C  0.98138168  0.08256249  0.18965655    -0.18300
C966        C  0.93873795  0.07422585  0.20547712     0.10100
S967        S  0.06865982  0.05046471  0.29619681    -0.33300
S968        S  0.89070376  0.08401942  0.16633593    -0.33300
H969        H  0.86833251  0.04348661  0.17389682     0.28100
H970        H  0.04567105  0.04109795  0.33627913     0.28100
H971        H  0.97030678  0.04187160  0.31259967     0.18700
H972        H  0.98275707  0.09501152  0.15548942     0.18700
C973        C  0.07809770  0.94288680  0.24271667    -0.07200
C974        C  0.10552658  0.93951553  0.28337514    -0.18300
C975        C  0.08417225  0.92366692  0.32234648     0.10000
C976        C  0.04054561  0.90367739  0.31506838    -0.07100
C977        C  0.01154041  0.93023863  0.28885680    -0.18300
C978        C  0.02970771  0.94416782  0.24785704     0.10100
S979        S  0.10889325  0.93200391  0.37948616    -0.33300
S980        S  0.99121048  0.96042957  0.20289801    -0.33300
H981        H  0.95500217  0.97134472  0.23206843     0.28100
H982        H  0.07125346  0.91405352  0.40127118     0.28100
H983        H  0.14145911  0.94853026  0.28454436     0.18700
H984        H  0.97473479  0.92690395  0.29138886     0.18700
C985        C  0.13207275  0.07384939  0.80001979    -0.07200
C986        C  0.10295823  0.03675107  0.78936138    -0.18300
C987        C  0.10031199  0.00226762  0.82006904     0.10000
C988        C  0.12408504  0.00730600  0.86311215    -0.07100
C989        C  0.14594781  0.04831305  0.87588436    -0.18300
C990        C  0.14638565  0.08313857  0.84622356     0.10100
S991        S  0.07289003  0.94991536  0.80132087    -0.33300
S992        S  0.17376557  0.13552185  0.86670191    -0.33300
H993        H  0.15680797  0.16041642  0.83027112     0.28100
H994        H  0.06510351  0.95937648  0.75489714     0.28100
H995        H  0.09021245  0.03072888  0.75410316     0.18700
H996        H  0.16144775  0.05414969  0.90989337     0.18700
C997        C  0.02029769  0.81921093  0.88189670    -0.07200
C998        C  0.02925552  0.79231295  0.91920093    -0.18300
C999        C  0.01281923  0.80716003  0.96282092     0.10000
C1000       C  0.98496833  0.84638355  0.96621207    -0.07100
C1001       C  0.96220186  0.85794888  0.92609234    -0.18300
C1002       C  0.98800571  0.85462616  0.88701612     0.10100
S1003       S  0.02865689  0.77848244  0.01371668    -0.33300
S1004       S  0.98628583  0.90041109  0.84906161    -0.33300
H1005       H  0.97271531  0.93389107  0.88232156     0.28100
H1006       H  0.05376111  0.74373851  0.99085952     0.28100
H1007       H  0.05071472  0.76259230  0.91495056     0.18700
H1008       H  0.93654412  0.88380199  0.92865300     0.18700
C1009       C  0.05121020  0.16858709  0.79617614    -0.07200
C1010       C  0.06835157  0.18953694  0.83737961    -0.18300
C1011       C  0.06857037  0.16783300  0.87798441     0.10000
C1012       C  0.05381335  0.12231019  0.87662911    -0.07100
C1013       C  0.03134479  0.10329305  0.83632763    -0.18300
C1014       C  0.02953768  0.12654432  0.79584249     0.10100
S1015       S  0.08865898  0.19971447  0.92996452    -0.33300
S1016       S  0.00115228  0.10238316  0.74401750    -0.33300
H1017       H  0.99249249  0.05995028  0.76089099     0.28100
H1018       H  0.08598869  0.24295159  0.91279759     0.28100
H1019       H  0.08109609  0.22380685  0.83777270     0.18700
H1020       H  0.01725494  0.06960191  0.83583759     0.18700
C1021       C  0.82489244  0.06064169  0.90738402    -0.07200
C1022       C  0.83631188  0.01818911  0.92282201    -0.18300
C1023       C  0.87192657  0.01356465  0.95480545     0.10000
C1024       C  0.89319936  0.05214634  0.97638781    -0.07100
C1025       C  0.87405140  0.09472036  0.96954628    -0.18300
C1026       C  0.84015739  0.09957165  0.93442641     0.10100
S1027       S  0.89418325  0.95750215  0.95909830    -0.33300
S1028       S  0.81834879  0.15512248  0.92372513    -0.33300
H1029       H  0.84684393  0.17922267  0.95650788     0.28100
H1030       H  0.91988148  0.96494359  0.00042400     0.28100
H1031       H  0.82271233  0.98772206  0.90503427     0.18700
H1032       H  0.88883805  0.12424468  0.98799584     0.18700
C1033       C  0.20191854  0.74641093  0.97238902    -0.07200
C1034       C  0.17264367  0.76379464  0.93881957    -0.18300
C1035       C  0.14692286  0.80162943  0.95367652     0.10000
C1036       C  0.14120262  0.80992427  0.00202087    -0.07100
C1037       C  0.15124920  0.77439218  0.03084294    -0.18300
C1038       C  0.17907392  0.73886667  0.01313803     0.10100
S1039       S  0.13288156  0.84211609  0.91185919    -0.33300
S1040       S  0.19555262  0.69310734  0.04743590    -0.33300
H1041       H  0.22564307  0.67336743  0.01498526     0.28100
H1042       H  0.09469164  0.85921571  0.93510146     0.28100
H1043       H  0.18230352  0.76055098  0.90319263     0.18700
H1044       H  0.14276705  0.77675028  0.06692460     0.18700
C1045       C  0.00822590  0.20326858  0.02634923    -0.07200
C1046       C  0.00391368  0.24184512  0.05612253    -0.18300
C1047       C  0.96638021  0.27114605  0.05070312     0.10000
C1048       C  0.93565923  0.26350174  0.01242337    -0.07100
C1049       C  0.94569772  0.22983276  0.97849497    -0.18300
C1050       C  0.97925764  0.19791952  0.98660643     0.10100
S1051       S  0.95664101  0.31628954  0.09362188    -0.33300
S1052       S  0.97756578  0.14644566  0.95068866    -0.33300
H1053       H  0.94999922  0.16161406  0.91420106     0.28100
H1054       H  0.99109552  0.30377141  0.12546176     0.28100
H1055       H  0.02757584  0.24690089  0.08534565     0.18700
H1056       H  0.92231912  0.22365348  0.94916339     0.18700
C1057       C  0.83625074  0.92322766  0.03719281    -0.07200
C1058       C  0.87254538  0.89472321  0.04926133    -0.18300
C1059       C  0.90644762  0.90852299  0.08025481     0.10000
C1060       C  0.90970141  0.95514109  0.09370900    -0.07100
C1061       C  0.87283760  0.98415198  0.08284713    -0.18300
C1062       C  0.83476762  0.96774852  0.05612224     0.10100
S1063       S  0.94528604  0.86388965  0.09756866    -0.33300
S1064       S  0.78751520  0.00427232  0.04206296    -0.33300
H1065       H  0.80140075  0.04072519  0.07254566     0.28100
H1066       H  0.96623992  0.88662921  0.13642824     0.28100
H1067       H  0.87374527  0.85997052  0.03585827     0.18700
H1068       H  0.87545747  0.01993666  0.09148535     0.18700
loop_ 
_geom_bond_atom_site_label_1 
_geom_bond_atom_site_label_2 
_geom_bond_distance 
_geom_bond_site_symmetry_2 
_ccdc_geom_bond_type 
C1            N2   1.349       .  A
C1            N6   1.387       .  A
C1          C301   1.488       .  S
N2            C3   1.340       .  A
C3            N4   1.355   1_554  A
C3         C1057   1.455       .  S
N4            C5   1.361       .  A
C5            N6   1.385   1_556  A
C5          C559   1.505       .  S
C7            N8   1.357       .  A
C7           N12   1.395       .  A
C7          C222   1.511       .  S
N8            C9   1.342       .  A
C9           N10   1.344   1_554  A
C9         C1048   1.472       .  S
N10          C11   1.352       .  A
C11          N12   1.393   1_556  A
C11         C493   1.517       .  S
C13          N14   1.388   1_554  A
C13          N18   1.348       .  A
C13         C169   1.494       .  S
N14          C15   1.387       .  A
C15          N16   1.355       .  A
C15         C427   1.502       .  S
N16          C17   1.353       .  A
C17          N18   1.350   1_556  A
C17        C1033   1.495       .  S
C19          N20   1.354       .  A
C19          N24   1.398       .  A
C19         C491   1.507       .  S
N20          C21   1.344       .  A
C21          N22   1.351       .  A
C21        C1021   1.488       .  S
N22          C23   1.355       .  A
C23          N24   1.391       .  A
C23         C558   1.531   1_545  S
C25          N26   1.342       .  A
C25          N30   1.396       .  A
C25         C492   1.500   1_455  S
N26          C27   1.334       .  A
C27          N28   1.348       .  A
C27        C1009   1.441       .  S
N28          C29   1.353       .  A
C29          N30   1.395       .  A
C29         C361   1.517       .  S
C31          N32   1.336       .  A
C31          N36   1.379   1_655  A
C31         C557   1.477       .  S
N32          C33   1.333   1_655  A
C33          N34   1.357       .  A
C33         C997   1.457       .  S
N34          C35   1.367       .  A
C35          N36   1.382       .  A
C35         C426   1.502       .  S
C37          N38   1.390       .  A
C37          N42   1.354       .  A
C37         C359   1.502       .  S
N38          C39   1.387       .  A
C39          N40   1.337       .  A
C39         C425   1.497   1_545  S
N40          C41   1.342       .  A
C41          N42   1.347       .  A
C41         C985   1.448       .  S
C43          N44   1.358   1_655  A
C43          N48   1.397   1_655  A
C43         C293   1.521       .  S
N44          C45   1.356       .  A
C45          N46   1.350       .  A
C45         C976   1.494       .  S
N46          C47   1.345       .  A
C47          N48   1.396       .  A
C47         C176   1.517       .  S
C49          N50   1.391       .  A
C49          N54   1.342       .  A
C49         C221   1.502       .  S
N50          C51   1.393       .  A
C51          N52   1.363       .  A
C51         C308   1.522   1_545  S
N52          C53   1.354       .  A
C53          N54   1.339       .  A
C53         C961   1.452       .  S
C55          N56   1.400       .  A
C55          N60   1.355       .  A
C55         C223   1.512   1_455  S
N56          C57   1.395       .  A
C57          N58   1.332       .  A
C57         C104   1.512       .  S
N58          C59   1.335       .  A
C59          N60   1.351       .  A
C59         C949   1.450       .  S
Zr61         O62   2.405       .  S
Zr61         O63   2.502       .  S
Zr61         O64   2.539       .  S
Zr61         O67   2.574       .  S
Zr61         O69   2.395       .  S
Zr61         O70   2.388       .  S
Zr61         O71   2.430       .  S
Zr61         O72   2.410       .  S
O62         H118   0.991       .  S
O62         H126   0.990       .  S
O63          C83   1.295       .  A
O64          C85   1.313       .  A
O65         Zr75   2.457       .  S
O65          C84   1.287       .  A
O66         Zr74   2.482       .  S
O66          C85   1.288       .  A
O67          C84   1.312       .  A
O68         Zr76   2.414       .  S
O68          C83   1.271       .  A
O69         Zr74   2.409       .  S
O69         Zr76   2.387       .  S
O70         Zr75   2.397       .  S
O70         Zr76   2.388       .  S
O70         H105   0.963       .  S
O71         Zr74   2.416       .  S
O71         Zr91   2.380       .  S
O71         H108   0.962       .  S
O72         Zr75   2.388       .  S
O72         Zr91   2.405       .  S
Zr73         O98   2.447       .  S
Zr73         O92   2.568       .  S
Zr73        O100   2.584       .  S
Zr73         O88   2.576       .  S
Zr73         O79   2.420       .  S
Zr73         O80   2.430       .  S
Zr73         O81   2.391       .  S
Zr73         O82   2.404       .  S
Zr74         O93   2.439       .  S
Zr74         O86   2.437       .  S
Zr74         O87   2.456       .  S
Zr74         O80   2.415       .  S
Zr74         O81   2.416       .  S
Zr75         O77   2.439       .  S
Zr75         O99   2.438       .  S
Zr75        O101   2.419       .  S
Zr75         O79   2.410       .  S
Zr75         O82   2.417       .  S
Zr76        O102   2.436       .  S
Zr76        O103   2.437       .  S
Zr76         O78   2.440       .  S
Zr76         O79   2.396       .  S
Zr76         O80   2.374       .  S
O77         H114   0.989       .  S
O78         H109   0.991       .  S
O78         H123   0.990       .  S
O80         H106   0.963       .  S
O81         Zr91   2.393       .  S
O82         Zr91   2.380       .  S
O82         H107   0.966       .  S
C83         C643   1.479       .  S
C84         C667   1.545       .  S
C85         C629   1.519       .  S
O86         H122   0.990       .  S
O87          C89   1.288       .  A
O88          C89   1.313       .  A
C89         C331   1.525       .  S
O90         Zr91   2.437       .  S
O90         H119   0.990       .  S
Zr91         O94   2.436       .  S
Zr91         O95   2.435       .  S
Zr91         O96   2.425       .  S
O92          C97   1.314       .  A
O93         H110   0.990       .  S
O93         H125   0.989       .  S
O94         H111   0.990       .  S
O95         H115   0.990       .  S
O95         H124   0.989       .  S
O96          C97   1.275       .  A
C97         C127   1.522       .  S
O98         H117   0.990       .  S
O98         H121   0.988       .  S
O99         H113   0.990       .  S
O99         H120   0.990       .  S
O100        C104   1.320       .  A
O101        C104   1.270       .  A
O102        H112   0.990       .  S
O103        H116   0.990       .  S
C127        N128   1.399       .  A
C127        N132   1.347       .  A
N128        C129   1.391       .  A
C129        N130   1.348       .  A
C129        C161   1.526   1_545  S
N130        C131   1.354       .  A
C131        N132   1.351       .  A
C131        C937   1.489       .  S
Zr133       O134   2.414       .  S
Zr133       O135   2.552       .  S
Zr133       O136   2.529       .  S
Zr133       O139   2.497       .  S
Zr133       O141   2.374       .  S
Zr133       O142   2.389       .  S
Zr133       O143   2.431       .  S
Zr133       O144   2.422       .  S
O134        H190   0.989       .  S
O134        H198   0.988       .  S
O135        C155   1.308       .  A
O136        C157   1.304       .  A
O137       Zr147   2.422       .  S
O137        C156   1.282       .  A
O138       Zr146   2.480       .  S
O138        C157   1.289       .  A
O139        C156   1.296       .  A
O140       Zr148   2.409       .  S
O140        C155   1.267       .  A
O141       Zr146   2.409       .  S
O141       Zr148   2.394       .  S
O142       Zr147   2.399       .  S
O142       Zr148   2.390       .  S
O142        H177   0.965       .  S
O143       Zr146   2.404       .  S
O143       Zr163   2.366       .  S
O143        H180   0.960       .  S
O144       Zr147   2.379       .  S
O144       Zr163   2.388       .  S
Zr145       O170   2.368       .  S
Zr145       O164   2.538       .  S
Zr145       O172   2.573       .  S
Zr145       O160   2.578       .  S
Zr145       O151   2.396       .  S
Zr145       O152   2.418       .  S
Zr145       O153   2.382       .  S
Zr145       O154   2.395       .  S
Zr146       O165   2.440       .  S
Zr146       O158   2.432       .  S
Zr146       O159   2.444       .  S
Zr146       O152   2.409       .  S
Zr146       O153   2.403       .  S
Zr147       O149   2.428       .  S
Zr147       O171   2.443       .  S
Zr147       O173   2.445       .  S
Zr147       O151   2.387       .  S
Zr147       O154   2.389       .  S
Zr148       O174   2.437       .  S
Zr148       O175   2.425       .  S
Zr148       O150   2.444       .  S
Zr148       O151   2.383       .  S
Zr148       O152   2.400       .  S
O149        H186   0.990       .  S
O150        H181   0.990       .  S
O150        H195   0.988       .  S
O152        H178   0.964       .  S
O153       Zr163   2.384       .  S
O154       Zr163   2.379       .  S
O154        H179   0.966       .  S
C155        C661   1.494       .  S
C156        C645   1.479       .  S
C157        C641   1.507       .  S
O158        H194   0.990       .  S
O159        C161   1.288       .  A
O160        C161   1.314       .  A
O162       Zr163   2.433       .  S
O162        H191   0.991       .  S
Zr163       O166   2.435       .  S
Zr163       O167   2.436       .  S
Zr163       O168   2.406       .  S
O164        C169   1.301       .  A
O165        H182   0.990       .  S
O165        H197   0.990       .  S
O166        H183   0.990       .  S
O167        H187   0.990       .  S
O167        H196   0.990       .  S
O168        C169   1.271       .  A
O170        H189   0.984       .  S
O170        H193   0.991       .  S
O171        H185   0.989       .  S
O171        H192   0.990       .  S
O172        C176   1.317       .  A
O173        C176   1.280       .  A
O174        H184   0.991       .  S
O175        H188   0.989       .  S
Zr199       O200   2.436       .  S
Zr199       O201   2.524       .  S
Zr199       O202   2.527       .  S
Zr199       O205   2.480       .  S
Zr199       O207   2.373       .  S
Zr199       O208   2.401       .  S
Zr199       O209   2.424       .  S
Zr199       O210   2.412       .  S
O200        H256   0.989       .  S
O200        H264   0.990       .  S
O201        C221   1.305       .  A
O202        C223   1.304       .  A
O203       Zr213   2.492       .  S
O203        C222   1.292       .  A
O204       Zr212   2.488       .  S
O204        C223   1.294       .  A
O205        C222   1.299       .  A
O206       Zr214   2.418       .  S
O206        C221   1.272       .  A
O207       Zr212   2.427       .  S
O207       Zr214   2.408       .  S
O208       Zr213   2.436       .  S
O208       Zr214   2.386       .  S
O208        H243   0.966       .  S
O209       Zr212   2.402       .  S
O209       Zr229   2.384       .  S
O209        H246   0.961       .  S
O210       Zr213   2.405       .  S
O210       Zr229   2.391       .  S
Zr211       O236   2.407       .  S
Zr211       O230   2.506       .  S
Zr211       O238   2.518       .  S
Zr211       O226   2.480       .  S
Zr211       O217   2.404       .  S
Zr211       O218   2.413       .  S
Zr211       O219   2.374       .  S
Zr211       O220   2.383       .  S
Zr212       O231   2.435       .  S
Zr212       O224   2.435       .  S
Zr212       O225   2.499       .  S
Zr212       O218   2.408       .  S
Zr212       O219   2.408       .  S
Zr213       O215   2.437       .  S
Zr213       O237   2.435       .  S
Zr213       O239   2.524       .  S
Zr213       O217   2.390       .  S
Zr213       O220   2.423       .  S
Zr214       O240   2.436       .  S
Zr214       O241   2.438       .  S
Zr214       O216   2.442       .  S
Zr214       O217   2.390       .  S
Zr214       O218   2.377       .  S
O215        H252   0.990       .  S
O216        H247   0.990       .  S
O216        H261   0.990       .  S
O218        H244   0.961       .  S
O219       Zr229   2.396       .  S
O220       Zr229   2.394       .  S
O220        H245   0.966       .  S
O224        H260   0.990       .  S
O225        C227   1.292       .  A
O226        C227   1.298       .  A
C227        C655   1.512       .  S
O228       Zr229   2.437       .  S
O228        H257   0.990       .  S
Zr229       O232   2.439       .  S
Zr229       O233   2.438       .  S
Zr229       O234   2.427       .  S
O230        C235   1.303       .  A
O231        H248   0.990       .  S
O231        H263   0.991       .  S
O232        H249   0.991       .  S
O233        H253   0.991       .  S
O233        H262   0.990       .  S
O234        C235   1.274       .  A
C235        C631   1.495       .  S
O236        H255   0.989       .  S
O236        H259   0.987       .  S
O237        H251   0.990       .  S
O237        H258   0.990       .  S
O238        C242   1.305       .  A
O239        C242   1.298       .  A
O240        H250   0.990       .  S
O241        H254   0.990       .  S
C242        C625   1.540       .  S
Zr265       O266   2.415       .  S
Zr265       O267   2.519       .  S
Zr265       O268   2.514       .  S
Zr265       O271   2.516       .  S
Zr265       O273   2.381       .  S
Zr265       O274   2.394       .  S
Zr265       O275   2.411       .  S
Zr265       O276   2.400       .  S
O266        H322   0.988       .  S
O266        H330   0.986       .  S
O267        C287   1.306       .  A
O268        C289   1.303       .  A
O269       Zr279   2.463       .  S
O269        C288   1.288       .  A
O270       Zr278   2.515       .  S
O270        C289   1.299       .  A
O271        C288   1.298       .  A
O272       Zr280   2.398       .  S
O272        C287   1.271       .  A
O273       Zr278   2.420       .  S
O273       Zr280   2.404       .  S
O274       Zr279   2.423       .  S
O274       Zr280   2.390       .  S
O274        H309   0.966       .  S
O275       Zr278   2.403       .  S
O275       Zr295   2.365       .  S
O275        H312   0.961       .  S
O276       Zr279   2.403       .  S
O276       Zr295   2.388       .  S
Zr277       O302   2.395       .  S
Zr277       O296   2.526       .  S
Zr277       O304   2.515       .  S
Zr277       O292   2.517       .  S
Zr277       O283   2.394       .  S
Zr277       O284   2.414       .  S
Zr277       O285   2.378       .  S
Zr277       O286   2.388       .  S
Zr278       O297   2.435       .  S
Zr278       O290   2.434       .  S
Zr278       O291   2.509       .  S
Zr278       O284   2.408       .  S
Zr278       O285   2.418       .  S
Zr279       O281   2.439       .  S
Zr279       O303   2.444       .  S
Zr279       O305   2.499       .  S
Zr279       O283   2.377       .  S
Zr279       O286   2.425       .  S
Zr280       O306   2.436       .  S
Zr280       O307   2.439       .  S
Zr280       O282   2.437       .  S
Zr280       O283   2.368       .  S
Zr280       O284   2.391       .  S
O281        H318   0.990       .  S
O282        H313   0.990       .  S
O282        H327   0.990       .  S
O284        H310   0.962       .  S
O285       Zr295   2.396       .  S
O286       Zr295   2.398       .  S
O286        H311   0.966       .  S
C287        C649   1.487       .  S
C288        C637   1.504       .  S
C289        C633   1.530       .  S
O290        H326   0.990       .  S
O291        C293   1.299       .  A
O292        C293   1.301       .  A
O294       Zr295   2.431       .  S
O294        H323   0.989       .  S
Zr295       O298   2.436       .  S
Zr295       O299   2.440       .  S
Zr295       O300   2.393       .  S
O296        C301   1.307       .  A
O297        H314   0.990       .  S
O297        H329   0.990       .  S
O298        H315   0.990       .  S
O299        H319   0.990       .  S
O299        H328   0.990       .  S
O300        C301   1.268       .  A
O302        H321   0.986       .  S
O302        H325   0.985       .  S
O303        H317   0.989       .  S
O303        H324   0.990       .  S
O304        C308   1.298       .  A
O305        C308   1.290       .  A
O306        H316   0.990       .  S
O307        H320   0.990       .  S
C331        N332   1.366       .  A
C331        N336   1.393   1_554  A
N332        C333   1.363   1_554  A
C333        N334   1.338       .  A
C333        C928   1.469       .  S
N334        C335   1.339       .  A
C335        N336   1.388       .  A
C335        C360   1.494       .  S
Zr337       O338   2.441       .  S
Zr337       O339   2.495       .  S
Zr337       O340   2.468       .  S
Zr337       O343   2.484       .  S
Zr337       O345   2.383       .  S
Zr337       O346   2.384       .  S
Zr337       O347   2.417       .  S
Zr337       O348   2.413       .  S
O338        H394   0.990       .  S
O338        H402   0.990       .  S
O339        C359   1.300       .  A
O340        C361   1.293       .  A
O341       Zr351   2.466       .  S
O341        C360   1.288       .  A
O342       Zr350   2.518       .  S
O342        C361   1.297       .  A
O343        C360   1.296       .  A
O344       Zr352   2.441       .  S
O344        C359   1.280       .  A
O345       Zr350   2.402       .  S
O345       Zr352   2.392       .  S
O346       Zr351   2.400       .  S
O346       Zr352   2.385       .  S
O346        H381   0.966       .  S
O347       Zr350   2.406       .  S
O347       Zr367   2.400       .  S
O347        H384   0.964       .  S
O348       Zr351   2.399       .  S
O348       Zr367   2.408       .  S
Zr349       O374   2.438       .  S
Zr349       O368   2.538       .  S
Zr349       O376   2.531       .  S
Zr349       O364   2.559       .  S
Zr349       O355   2.424       .  S
Zr349       O356   2.431       .  S
Zr349       O357   2.397       .  S
Zr349       O358   2.392       .  S
Zr350       O369   2.438       .  S
Zr350       O362   2.435       .  S
Zr350       O363   2.466       .  S
Zr350       O356   2.421       .  S
Zr350       O357   2.426       .  S
Zr351       O353   2.434       .  S
Zr351       O375   2.447       .  S
Zr351       O377   2.452       .  S
Zr351       O355   2.407       .  S
Zr351       O358   2.413       .  S
Zr352       O378   2.435       .  S
Zr352       O379   2.438       .  S
Zr352       O354   2.446       .  S
Zr352       O355   2.402       .  S
Zr352       O356   2.398       .  S
O353        H390   0.990       .  S
O354        H385   0.989       .  S
O354        H399   0.990       .  S
O356        H382   0.964       .  S
O357       Zr367   2.386       .  S
O358       Zr367   2.382       .  S
O358        H383   0.966       .  S
O362        H398   0.990       .  S
O363        C365   1.290       .  A
O364        C365   1.309       .  A
C365        C671   1.515       .  S
O366       Zr367   2.439       .  S
O366        H395   0.990       .  S
Zr367       O370   2.436       .  S
Zr367       O371   2.440       .  S
Zr367       O372   2.428       .  S
O368        C373   1.306       .  A
O369        H386   0.990       .  S
O369        H401   0.990       .  S
O370        H387   0.989       .  S
O371        H391   0.990       .  S
O371        H400   0.991       .  S
O372        C373   1.279       .  A
C373        C607   1.519       .  S
O374        H393   0.990       .  S
O374        H397   0.989       .  S
O375        H389   0.990       .  S
O375        H396   0.989       .  S
O376        C380   1.309       .  A
O377        C380   1.283       .  A
O378        H388   0.990       .  S
O379        H392   0.990       .  S
C380        C615   1.511       .  S
Zr403       O404   2.390       .  S
Zr403       O405   2.516       .  S
Zr403       O406   2.509       .  S
Zr403       O409   2.481       .  S
Zr403       O411   2.373       .  S
Zr403       O412   2.389       .  S
Zr403       O413   2.418       .  S
Zr403       O414   2.403       .  S
O404        H460   0.986       .  S
O404        H468   0.990       .  S
O405        C425   1.302       .  A
O406        C427   1.299       .  A
O407       Zr417   2.495       .  S
O407        C426   1.295       .  A
O408       Zr416   2.483       .  S
O408        C427   1.293       .  A
O409        C426   1.295       .  A
O410       Zr418   2.410       .  S
O410        C425   1.267       .  A
O411       Zr416   2.419       .  S
O411       Zr418   2.392       .  S
O412       Zr417   2.426       .  S
O412       Zr418   2.391       .  S
O412        H447   0.966       .  S
O413       Zr416   2.409       .  S
O413       Zr433   2.397       .  S
O413        H450   0.961       .  S
O414       Zr417   2.377       .  S
O414       Zr433   2.378       .  S
Zr415       O440   2.441       .  S
Zr415       O434   2.529       .  S
Zr415       O442   2.513       .  S
Zr415       O430   2.495       .  S
Zr415       O421   2.408       .  S
Zr415       O422   2.407       .  S
Zr415       O423   2.374       .  S
Zr415       O424   2.391       .  S
Zr416       O435   2.436       .  S
Zr416       O428   2.434       .  S
Zr416       O429   2.489       .  S
Zr416       O422   2.411       .  S
Zr416       O423   2.414       .  S
Zr417       O419   2.438       .  S
Zr417       O441   2.438       .  S
Zr417       O443   2.467       .  S
Zr417       O421   2.400       .  S
Zr417       O424   2.415       .  S
Zr418       O444   2.433       .  S
Zr418       O445   2.434       .  S
Zr418       O420   2.453       .  S
Zr418       O421   2.389       .  S
Zr418       O422   2.387       .  S
O419        H456   0.990       .  S
O420        H451   0.990       .  S
O420        H465   0.987       .  S
O422        H448   0.959       .  S
O423       Zr433   2.398       .  S
O424       Zr433   2.381       .  S
O424        H449   0.966       .  S
O428        H464   0.990       .  S
O429        C431   1.294       .  A
O430        C431   1.296       .  A
C431        C603   1.511       .  S
O432       Zr433   2.437       .  S
O432        H461   0.990       .  S
Zr433       O436   2.438       .  S
Zr433       O437   2.442       .  S
Zr433       O438   2.411       .  S
O434        C439   1.309       .  A
O435        H452   0.990       .  S
O435        H467   0.990       .  S
O436        H453   0.990       .  S
O437        H457   0.990       .  S
O437        H466   0.990       .  S
O438        C439   1.273       .  A
C439        C609   1.500       .  S
O440        H459   0.987       .  S
O440        H463   0.988       .  S
O441        H455   0.990       .  S
O441        H462   0.990       .  S
O442        C446   1.297       .  A
O443        C446   1.291       .  A
O444        H454   0.990       .  S
O445        H458   0.990       .  S
C446        C665   1.507       .  S
Zr469       O470   2.441       .  S
Zr469       O471   2.509       .  S
Zr469       O472   2.492       .  S
Zr469       O475   2.526       .  S
Zr469       O477   2.386       .  S
Zr469       O478   2.381       .  S
Zr469       O479   2.431       .  S
Zr469       O480   2.418       .  S
O470        H526   0.990       .  S
O470        H534   0.990       .  S
O471        C491   1.301       .  A
O472        C493   1.302       .  A
O473       Zr483   2.426       .  S
O473        C492   1.277       .  A
O474       Zr482   2.505       .  S
O474        C493   1.294       .  A
O475        C492   1.308       .  A
O476       Zr484   2.437       .  S
O476        C491   1.278       .  A
O477       Zr482   2.427       .  S
O477       Zr484   2.395       .  S
O478       Zr483   2.422       .  S
O478       Zr484   2.385       .  S
O478        H513   0.966       .  S
O479       Zr482   2.417       .  S
O479       Zr499   2.372       .  S
O479        H516   0.961       .  S
O480       Zr483   2.406       .  S
O480       Zr499   2.405       .  S
Zr481       O506   2.442       .  S
Zr481       O500   2.460       .  S
Zr481       O508   2.477       .  S
Zr481       O496   2.464       .  S
Zr481       O487   2.400       .  S
Zr481       O488   2.417       .  S
Zr481       O489   2.376       .  S
Zr481       O490   2.385       .  S
Zr482       O501   2.438       .  S
Zr482       O494   2.436       .  S
Zr482       O495   2.515       .  S
Zr482       O488   2.412       .  S
Zr482       O489   2.410       .  S
Zr483       O485   2.437       .  S
Zr483       O507   2.437       .  S
Zr483       O509   2.452       .  S
Zr483       O487   2.401       .  S
Zr483       O490   2.404       .  S
Zr484       O510   2.436       .  S
Zr484       O511   2.436       .  S
Zr484       O486   2.435       .  S
Zr484       O487   2.391       .  S
Zr484       O488   2.410       .  S
O485        H522   0.990       .  S
O486        H517   0.990       .  S
O486        H531   0.990       .  S
O488        H514   0.965       .  S
O489       Zr499   2.392       .  S
O490       Zr499   2.385       .  S
O490        H515   0.966       .  S
O494        H530   0.990       .  S
O495        C497   1.299       .  A
O496        C497   1.291       .  A
C497        C613   1.515       .  S
O498       Zr499   2.442       .  S
O498        H527   0.990       .  S
Zr499       O502   2.437       .  S
Zr499       O503   2.438       .  S
Zr499       O504   2.423       .  S
O500        C505   1.292       .  A
O501        H518   0.990       .  S
O501        H533   0.990       .  S
O502        H519   0.990       .  S
O503        H523   0.990       .  S
O503        H532   0.991       .  S
O504        C505   1.276       .  A
C505        C619   1.478       .  S
O506        H525   0.990       .  S
O506        H529   0.990       .  S
O507        H521   0.989       .  S
O507        H528   0.990       .  S
O508        C512   1.299       .  A
O509        C512   1.281       .  A
O510        H520   0.990       .  S
O511        H524   0.990       .  S
C512        C659   1.497       .  S
Zr535       O536   2.423       .  S
Zr535       O537   2.515       .  S
Zr535       O538   2.501       .  S
Zr535       O541   2.461       .  S
Zr535       O543   2.377       .  S
Zr535       O544   2.375       .  S
Zr535       O545   2.417       .  S
Zr535       O546   2.408       .  S
O536        H592   0.990       .  S
O536        H600   0.983       .  S
O537        C557   1.305       .  A
O538        C559   1.302       .  A
O539       Zr549   2.532       .  S
O539        C558   1.298       .  A
O540       Zr548   2.489       .  S
O540        C559   1.294       .  A
O541        C558   1.292       .  A
O542       Zr550   2.376       .  S
O542        C557   1.259       .  A
O543       Zr548   2.428       .  S
O543       Zr550   2.407       .  S
O544       Zr549   2.409       .  S
O544       Zr550   2.398       .  S
O544        H579   0.966       .  S
O545       Zr548   2.406       .  S
O545       Zr565   2.363       .  S
O545        H582   0.958       .  S
O546       Zr549   2.389       .  S
O546       Zr565   2.407       .  S
Zr547       O572   2.443       .  S
Zr547       O566   2.483       .  S
Zr547       O574   2.493       .  S
Zr547       O562   2.460       .  S
Zr547       O553   2.377       .  S
Zr547       O554   2.414       .  S
Zr547       O555   2.363       .  S
Zr547       O556   2.402       .  S
Zr548       O567   2.435       .  S
Zr548       O560   2.437       .  S
Zr548       O561   2.486       .  S
Zr548       O554   2.412       .  S
Zr548       O555   2.415       .  S
Zr549       O551   2.434       .  S
Zr549       O573   2.440       .  S
Zr549       O575   2.504       .  S
Zr549       O553   2.376       .  S
Zr549       O556   2.440       .  S
Zr550       O576   2.438       .  S
Zr550       O577   2.438       .  S
Zr550       O552   2.442       .  S
Zr550       O553   2.347       .  S
Zr550       O554   2.383       .  S
O551        H588   0.990       .  S
O552        H583   0.990       .  S
O552        H597   0.990       .  S
O554        H580   0.962       .  S
O555       Zr565   2.395       .  S
O556       Zr565   2.385       .  S
O556        H581   0.966       .  S
O560        H596   0.990       .  S
O561        C563   1.290       .  A
O562        C563   1.292       .  A
C563        C623   1.497       .  S
O564       Zr565   2.441       .  S
O564        H593   0.990       .  S
Zr565       O568   2.437       .  S
Zr565       O569   2.436       .  S
Zr565       O570   2.419       .  S
O566        C571   1.297       .  A
O567        H584   0.990       .  S
O567        H599   0.990       .  S
O568        H585   0.990       .  S
O569        H589   0.990       .  S
O569        H598   0.990       .  S
O570        C571   1.273       .  A
C571        C601   1.477       .  S
O572        H591   0.990       .  S
O572        H595   0.991       .  S
O573        H587   0.990       .  S
O573        H594   0.990       .  S
O574        C578   1.301       .  A
O575        C578   1.296       .  A
O576        H586   0.991       .  S
O577        H590   0.990       .  S
C578        C653   1.503       .  S
C601        N602   1.381       .  A
C601        N606   1.327       .  A
N602        C603   1.390       .  A
C603        N604   1.377       .  A
N604        C605   1.362       .  A
C605        N606   1.320       .  A
C605        C913   1.479       .  S
C607        N608   1.388       .  A
C607        N612   1.365       .  A
N608        C609   1.382       .  A
C609        N610   1.343       .  A
N610        C611   1.342       .  A
C611        N612   1.367       .  A
C611        C901   1.465       .  S
C613        N614   1.395       .  A
C613        N618   1.370       .  A
N614        C615   1.388       .  A
C615        N616   1.336       .  A
N616        C617   1.345       .  A
C617        N618   1.356       .  A
C617        C889   1.494       .  S
C619        N620   1.351       .  A
C619        N624   1.386       .  A
N620        C621   1.338       .  A
C621        N622   1.340       .  A
C621        C877   1.454       .  S
N622        C623   1.353       .  A
C623        N624   1.382       .  A
C625        N626   1.363       .  A
C625        N630   1.403       .  A
N626        C627   1.356       .  A
C627        N628   1.335       .  A
C627        C865   1.475       .  S
N628        C629   1.340       .  A
C629        N630   1.400       .  A
C631        N632   1.392       .  A
C631        N636   1.332       .  A
N632        C633   1.397       .  A
C633        N634   1.372       .  A
N634        C635   1.360       .  A
C635        N636   1.327       .  A
C635        C853   1.457       .  S
C637        N638   1.357       .  A
C637        N642   1.390       .  A
N638        C639   1.352       .  A
C639        N640   1.351       .  A
C639        C841   1.488       .  S
N640        C641   1.352       .  A
C641        N642   1.389       .  A
C643        N644   1.380       .  A
C643        N648   1.348       .  A
N644        C645   1.380       .  A
C645        N646   1.351       .  A
N646        C647   1.350       .  A
C647        N648   1.349       .  A
C647        C832   1.493       .  S
C649        N650   1.347       .  A
C649        N654   1.386       .  A
N650        C651   1.340       .  A
C651        N652   1.353       .  A
C651        C817   1.457       .  S
N652        C653   1.361       .  A
C653        N654   1.385       .  A
C655        N656   1.355       .  A
C655        N660   1.391       .  A
N656        C657   1.341       .  A
C657        N658   1.332       .  A
C657        C805   1.440       .  S
N658        C659   1.349       .  A
C659        N660   1.394       .  A
C661        N662   1.337       .  A
C661        N666   1.389       .  A
N662        C663   1.345       .  A
C663        N664   1.355       .  A
C663        C796   1.492       .  S
N664        C665   1.359       .  A
C665        N666   1.391       .  A
C667        N668   1.377       .  A
C667        N672   1.403       .  A
N668        C669   1.369       .  A
C669        N670   1.339       .  A
C669        C781   1.494       .  S
N670        C671   1.330       .  A
C671        N672   1.394       .  A
O673       Zr709   2.401   1_655  S
O673        C684   1.281   1_545  A
O674       Zr708   2.442       .  S
O674        C685   1.296       .  A
O675       Zr681   2.374       .  S
O675        C686   1.278   1_554  A
O676       Zr681   2.465       .  S
O676        C687   1.300       .  A
O677       Zr711   2.429   1_565  S
O677        C687   1.290       .  A
O678       Zr710   2.464       .  S
O678        C686   1.304       .  A
O679       Zr681   2.436       .  S
O679        C685   1.290       .  A
O680       Zr681   2.390   1_655  S
O680        C684   1.278       .  A
Zr681       O682   2.317       .  S
Zr681       O683   2.353       .  S
Zr681       O691   2.288   1_565  S
Zr681       O689   2.334       .  S
O682       Zr708   2.349       .  S
O682       Zr711   2.344   1_565  S
O683       Zr709   2.334   1_565  S
O683       Zr710   2.274   1_554  S
C684       C1060   1.456       .  S
C685       C1036   1.469       .  S
C686       C1000   1.477   1_455  S
C687        C973   1.478       .  S
H688        O689   0.959   1_556  S
O689       Zr708   2.309       .  S
O689       Zr710   2.319   1_554  S
H690        O691   0.957   1_565  S
O691       Zr709   2.352       .  S
O691       Zr711   2.361       .  S
O692       Zr708   2.404   1_546  S
O692        C715   1.284       .  A
O693       Zr709   2.431       .  S
O693        C716   1.291       .  A
O694       Zr710   2.375       .  S
O694        C717   1.271       .  A
O695       Zr711   2.458       .  S
O695        C718   1.300   1_545  A
O696       Zr711   2.454       .  S
O696        C719   1.274       .  A
O697       Zr710   2.408   1_645  S
O697        C720   1.288       .  A
O698       Zr712   2.423   1_556  S
O698        C721   1.290       .  A
O699       Zr712   2.467       .  S
O699        C722   1.290       .  A
O700       Zr710   2.421   1_545  S
O700        C721   1.291       .  A
O701       Zr711   2.419       .  S
O701        C722   1.265       .  A
O702       Zr708   2.454   1_556  S
O702        C717   1.293       .  A
O703       Zr709   2.438   1_655  S
O703        C720   1.289   1_554  A
O704       Zr709   2.390       .  S
O704        C719   1.265       .  A
O705       Zr708   2.430       .  S
O705        C718   1.288       .  A
O706       Zr712   2.503   1_556  S
O706        C715   1.309       .  A
O707       Zr712   2.445       .  S
O707        C716   1.292       .  A
Zr708       O714   2.334   1_564  S
Zr708       O726   2.329   1_565  S
Zr709       O713   2.333       .  S
Zr709       O724   2.284       .  S
Zr710       O714   2.346   1_565  S
Zr710       O724   2.309   1_566  S
Zr711       O713   2.389       .  S
Zr711       O726   2.337       .  S
Zr712       O713   2.351       .  S
Zr712       O714   2.324   1_554  S
Zr712       O726   2.319       .  S
Zr712       O724   2.353       .  S
C715        C925   1.470       .  S
C716       C1045   1.464       .  S
C717        C988   1.471   1_565  S
C718        C940   1.468   1_565  S
C719        C964   1.472       .  S
C720       C1024   1.467       .  S
C721       C1012   1.473       .  S
C722        C952   1.485       .  S
H723        O724   0.958   1_556  S
H725        O726   0.955       .  S
O727       Zr763   2.410       .  S
O727        C738   1.279       .  A
O728       Zr762   2.385       .  S
O728        C739   1.276       .  A
O729       Zr735   2.405       .  S
O729        C740   1.270       .  A
O730       Zr735   2.440       .  S
O730        C741   1.291       .  A
O731       Zr765   2.398       .  S
O731        C741   1.283       .  A
O732       Zr764   2.426       .  S
O732        C740   1.277       .  A
O733       Zr735   2.459       .  S
O733        C739   1.292       .  A
O734       Zr735   2.448       .  S
O734        C738   1.296       .  A
Zr735       O736   2.308       .  S
Zr735       O737   2.349       .  S
Zr735       O745   2.329       .  S
Zr735       O743   2.374       .  S
O736       Zr762   2.351       .  S
O736       Zr765   2.324       .  S
O737       Zr763   2.349       .  S
O737       Zr764   2.323       .  S
C738        C916   1.478       .  S
C739        C892   1.488       .  S
C740        C904   1.479       .  S
C741        C880   1.455       .  S
H742        O743   0.955       .  S
O743       Zr762   2.341       .  S
O743       Zr764   2.346       .  S
H744        O745   0.965       .  S
O745       Zr763   2.359       .  S
O745       Zr765   2.347       .  S
O746       Zr762   2.411       .  S
O746        C769   1.284       .  A
O747       Zr763   2.430       .  S
O747        C770   1.293       .  A
O748       Zr764   2.410       .  S
O748        C771   1.283       .  A
O749       Zr765   2.381       .  S
O749        C772   1.285       .  A
O750       Zr765   2.354       .  S
O750        C773   1.269       .  A
O751       Zr764   2.423       .  S
O751        C774   1.282       .  A
O752       Zr766   2.459       .  S
O752        C775   1.299       .  A
O753       Zr766   2.442       .  S
O753        C776   1.290       .  A
O754       Zr764   2.389       .  S
O754        C775   1.281       .  A
O755       Zr765   2.394       .  S
O755        C776   1.289       .  A
O756       Zr762   2.461       .  S
O756        C771   1.297       .  A
O757       Zr763   2.414       .  S
O757        C774   1.279       .  A
O758       Zr763   2.440       .  S
O758        C773   1.290       .  A
O759       Zr762   2.443       .  S
O759        C772   1.291       .  A
O760       Zr766   2.504       .  S
O760        C769   1.306       .  A
O761       Zr766   2.449       .  S
O761        C770   1.292       .  A
Zr762       O768   2.345       .  S
Zr762       O780   2.300       .  S
Zr763       O767   2.279       .  S
Zr763       O778   2.355       .  S
Zr764       O768   2.336       .  S
Zr764       O778   2.342       .  S
Zr765       O767   2.326       .  S
Zr765       O780   2.263       .  S
Zr766       O767   2.368       .  S
Zr766       O768   2.356       .  S
Zr766       O780   2.318       .  S
Zr766       O778   2.409       .  S
C769        C868   1.481       .  S
C770        C844   1.473       .  S
C771        C784   1.479       .  S
C772        C808   1.464       .  S
C773        C820   1.463       .  S
C774        C793   1.473       .  S
C775        C829   1.468       .  S
C776        C856   1.480       .  S
H777        O778   0.955       .  S
H779        O780   0.947       .  S
C781        C782   1.404       .  A
C781        C786   1.395       .  A
C782        C783   1.394       .  A
C782        H791   1.084       .  S
C783        C784   1.406       .  A
C783        S787   1.773       .  S
C784        C785   1.411       .  A
C785        C786   1.407       .  A
C785        H792   1.076       .  S
C786        S788   1.793       .  S
S787        H790   1.407       .  S
S788        H789   1.409       .  S
C793        C794   1.414       .  A
C793        C798   1.420       .  A
C794        C795   1.403       .  A
C794        H803   1.081       .  S
C795        C796   1.395       .  A
C795        S799   1.786       .  S
C796        C797   1.410       .  A
C797        C798   1.416       .  A
C797        H804   1.082       .  S
C798        S800   1.788       .  S
S799        H802   1.408       .  S
S800        H801   1.406       .  S
C805        C806   1.403       .  A
C805        C810   1.401       .  A
C806        C807   1.408       .  A
C806        H815   1.082       .  S
C807        C808   1.411       .  A
C807        S811   1.802       .  S
C808        C809   1.403       .  A
C809        C810   1.369       .  A
C809        H816   1.082       .  S
C810        S812   1.817       .  S
S811        H814   1.407       .  S
S812        H813   1.407       .  S
C817        C818   1.406       .  A
C817        C822   1.404       .  A
C818        C819   1.376       .  A
C818        H827   1.079       .  S
C819        C820   1.402       .  A
C819        S823   1.809       .  S
C820        C821   1.411       .  A
C821        C822   1.399       .  A
C821        H828   1.081       .  S
C822        S824   1.803       .  S
S823        H826   1.408       .  S
S824        H825   1.407       .  S
C829        C830   1.410       .  A
C829        C834   1.424       .  A
C830        C831   1.399       .  A
C830        H839   1.084       .  S
C831        C832   1.405       .  A
C831        S835   1.789       .  S
C832        C833   1.406       .  A
C833        C834   1.412       .  A
C833        H840   1.082       .  S
C834        S836   1.796       .  S
S835        H838   1.408       .  S
S836        H837   1.407       .  S
C841        C842   1.392       .  A
C841        C846   1.406       .  A
C842        C843   1.398       .  A
C842        H851   1.080       .  S
C843        C844   1.417       .  A
C843        S847   1.788       .  S
C844        C845   1.407       .  A
C845        C846   1.409       .  A
C845        H852   1.082       .  S
C846        S848   1.789       .  S
S847        H850   1.406       .  S
S848        H849   1.409       .  S
C853        C854   1.406       .  A
C853        C858   1.408       .  A
C854        C855   1.414       .  A
C854        H863   1.083       .  S
C855        C856   1.410       .  A
C855        S859   1.797       .  S
C856        C857   1.400       .  A
C857        C858   1.393       .  A
C857        H864   1.080       .  S
C858        S860   1.812       .  S
S859        H862   1.408       .  S
S860        H861   1.408       .  S
C865        C866   1.414       .  A
C865        C870   1.392       .  A
C866        C867   1.414       .  A
C866        H875   1.082       .  S
C867        C868   1.412       .  A
C867        S871   1.795       .  S
C868        C869   1.406       .  A
C869        C870   1.389       .  A
C869        H876   1.074       .  S
C870        S872   1.788       .  S
S871        H874   1.407       .  S
S872        H873   1.408       .  S
C877        C878   1.399       .  A
C877        C882   1.406       .  A
C878        C879   1.388       .  A
C878        H887   1.083       .  S
C879        C880   1.406       .  A
C879        S883   1.798       .  S
C880        C881   1.394       .  A
C881        C882   1.394       .  A
C881        H888   1.069       .  S
C882        S884   1.800       .  S
S883        H886   1.407       .  S
S884        H885   1.408       .  S
C889        C890   1.400       .  A
C889        C894   1.417       .  A
C890        C891   1.367       .  A
C890        H899   1.083       .  S
C891        C892   1.414       .  A
C891        S895   1.797       .  S
C892        C893   1.414       .  A
C893        C894   1.422       .  A
C893        H900   1.083       .  S
C894        S896   1.801       .  S
S895        H898   1.409       .  S
S896        H897   1.408       .  S
C901        C902   1.405       .  A
C901        C906   1.410       .  A
C902        C903   1.385       .  A
C902        H911   1.075       .  S
C903        C904   1.408       .  A
C903        S907   1.810       .  S
C904        C905   1.409       .  A
C905        C906   1.406       .  A
C905        H912   1.082       .  S
C906        S908   1.803       .  S
S907        H910   1.407       .  S
S908        H909   1.407       .  S
C913        C914   1.400       .  A
C913        C918   1.440       .  A
C914        C915   1.406       .  A
C914        H923   1.076       .  S
C915        C916   1.397       .  A
C915        S919   1.796       .  S
C916        C917   1.385       .  A
C917        C918   1.397       .  A
C917        H924   1.079       .  S
C918        S920   1.799       .  S
S919        H922   1.407       .  S
S920        H921   1.406       .  S
C925        C926   1.399       .  A
C925        C930   1.387       .  A
C926        C927   1.401       .  A
C926        H935   1.075   1_556  S
C927        C928   1.400       .  A
C927        S931   1.800   1_556  S
C928        C929   1.406       .  A
C929        C930   1.392       .  A
C929        H936   1.084       .  S
C930        S932   1.781       .  S
S931        H934   1.407       .  S
S932        H933   1.406       .  S
C937        C938   1.410       .  A
C937        C942   1.407       .  A
C938        C939   1.416   1_545  A
C938        H947   1.082       .  S
C939        C940   1.416   1_565  A
C939        S943   1.788       .  S
C940        C941   1.411       .  A
C941        C942   1.393       .  A
C941        H948   1.078       .  S
C942        S944   1.801       .  S
S943        H946   1.407       .  S
S944        H945   1.407       .  S
C949        C950   1.394       .  A
C949        C954   1.418       .  A
C950        C951   1.390       .  A
C950        H959   1.084       .  S
C951        C952   1.424       .  A
C951        S955   1.792       .  S
C952        C953   1.404       .  A
C953        C954   1.393       .  A
C953        H960   1.082       .  S
C954        S956   1.797       .  S
S955        H958   1.407       .  S
S956        H957   1.403   1_455  S
C961        C962   1.405       .  A
C961        C966   1.407       .  A
C962        C963   1.413   1_655  A
C962        H971   1.082       .  S
C963        C964   1.415       .  A
C963        S967   1.803       .  S
C964        C965   1.398   1_455  A
C965        C966   1.369       .  A
C965        H972   1.083       .  S
C966        S968   1.808       .  S
S967        H970   1.406       .  S
S968        H969   1.404       .  S
C973        C974   1.413       .  A
C973        C978   1.424       .  A
C974        C975   1.417       .  A
C974        H983   1.081       .  S
C975        C976   1.410       .  A
C975        S979   1.791       .  S
C976        C977   1.394       .  A
C977        C978   1.406       .  A
C977        H984   1.083   1_455  S
C978        S980   1.782   1_455  S
S979        H982   1.408       .  S
S980        H981   1.400       .  S
C985        C986   1.406       .  A
C985        C990   1.404       .  A
C986        C987   1.404       .  A
C986        H995   1.083       .  S
C987        C988   1.410       .  A
C987        S991   1.797   1_545  S
C988        C989   1.400       .  A
C989        C990   1.387       .  A
C989        H996   1.077       .  S
C990        S992   1.809       .  S
S991        H994   1.406       .  S
S992        H993   1.404       .  S
C997        C998   1.403       .  A
C997       C1002   1.412   1_455  A
C998        C999   1.414       .  A
C998       H1007   1.082       .  S
C999       C1000   1.417   1_455  A
C999       S1003   1.798   1_556  S
C1000      C1001   1.383       .  A
C1001      C1002   1.381       .  A
C1001      H1008   1.070       .  S
C1002      S1004   1.803       .  S
S1003      H1006   1.407   1_554  S
S1004      H1005   1.407       .  S
C1009      C1010   1.393       .  A
C1009      C1014   1.401       .  A
C1010      C1011   1.379       .  A
C1010      H1019   1.084       .  S
C1011      C1012   1.418       .  A
C1011      S1015   1.813       .  S
C1012      C1013   1.410       .  A
C1013      C1014   1.400       .  A
C1013      H1020   1.082       .  S
C1014      S1016   1.804       .  S
S1015      H1018   1.407       .  S
S1016      H1017   1.407   1_455  S
C1021      C1022   1.399       .  A
C1021      C1026   1.421       .  A
C1022      C1023   1.382       .  A
C1022      H1031   1.083   1_545  S
C1023      C1024   1.407       .  A
C1023      S1027   1.793   1_545  S
C1024      C1025   1.402       .  A
C1025      C1026   1.410       .  A
C1025      H1032   1.082       .  S
C1026      S1028   1.806       .  S
S1027      H1030   1.400   1_556  S
S1028      H1029   1.406       .  S
C1033      C1034   1.396       .  A
C1033      C1038   1.408   1_556  A
C1034      C1035   1.401       .  A
C1034      H1043   1.080       .  S
C1035      C1036   1.426   1_556  A
C1035      S1039   1.798       .  S
C1036      C1037   1.411       .  A
C1037      C1038   1.409       .  A
C1037      H1044   1.083       .  S
C1038      S1040   1.789       .  S
S1039      H1042   1.398       .  S
S1040      H1041   1.408       .  S
C1045      C1046   1.399       .  A
C1045      C1050   1.409   1_454  A
C1046      C1047   1.405   1_455  A
C1046      H1055   1.080       .  S
C1047      C1048   1.412       .  A
C1047      S1051   1.801       .  S
C1048      C1049   1.396   1_554  A
C1049      C1050   1.383       .  A
C1049      H1056   1.081       .  S
C1050      S1052   1.796       .  S
S1051      H1054   1.407       .  S
S1052      H1053   1.404       .  S
C1057      C1058   1.401       .  A
C1057      C1062   1.400       .  A
C1058      C1059   1.362       .  A
C1058      H1067   1.081       .  S
C1059      C1060   1.417       .  A
C1059      S1063   1.823       .  S
C1060      C1061   1.414       .  A
C1061      C1062   1.404       .  A
C1061      H1068   1.079   1_565  S
C1062      S1064   1.801   1_565  S
S1063      H1066   1.402       .  S
S1064      H1065   1.407       .  S
