geometry optimzed in LAMMPS
_audit_creation_date              2020-12-01 
_audit_creation_method            'lammps2cif' 
_symmetry_space_group_name_H-M    'P1' 
_symmetry_Int_Tables_number       1 
_symmetry_cell_setting            triclinic 
loop_ 
_symmetry_equiv_pos_as_xyz 
  x,y,z 
_cell_length_a                    51.12355573 
_cell_length_b                    51.40333983518525 
_cell_length_c                    49.79515051629721 
_cell_angle_alpha                 89.94878312701677 
_cell_angle_beta                  89.93219734513767 
_cell_angle_gamma                 89.95135667489107 
loop_ 
_atom_site_label 
_atom_site_type_symbol 
_atom_site_fract_x 
_atom_site_fract_y 
_atom_site_fract_z 
_atom_site_charge 
In1        In  0.75339832  0.88055929  0.50105879     1.36900
C2          C  0.80028146  0.90344789  0.50272664     0.78300
O3          O  0.74785467  0.88152675  0.54552437    -0.60100
O4          O  0.75420757  0.84489861  0.52700835    -0.51100
C5          C  0.70596594  0.90203577  0.49902268     0.71000
O6          O  0.72622423  0.91475413  0.50515265    -0.45900
C7          C  0.75641733  0.85812524  0.45334641     0.75700
O8          O  0.77954419  0.91557355  0.49696534    -0.57800
O9          O  0.75315782  0.84529447  0.47470675    -0.47900
O10         O  0.79679624  0.87968996  0.50783019    -0.54200
C11         C  0.74982866  0.85724385  0.54845108     0.85800
O12         O  0.71024940  0.87843808  0.49386923    -0.56100
O13         O  0.75790965  0.88238614  0.45656191    -0.59400
C14         C  0.72874287  0.77577877  0.74979700     0.03000
C15         C  0.73937322  0.76451019  0.72636132     0.03000
C16         C  0.74886319  0.73897761  0.72719379    -0.17600
C17         C  0.74834157  0.72447939  0.75106242     0.03000
C18         C  0.73795700  0.73588047  0.77467531     0.03000
C19         C  0.72795778  0.76126696  0.77363071    -0.17600
H20         H  0.71982305  0.76995640  0.79163870     0.05000
H21         H  0.75697157  0.73038568  0.70911942     0.05000
C22         C  0.77263259  0.77748960  0.25154025     0.03000
C23         C  0.76298150  0.76634946  0.27557515     0.03000
C24         C  0.75308759  0.74093447  0.27553392    -0.17600
C25         C  0.75214928  0.72623723  0.25190301     0.03000
C26         C  0.76160510  0.73723532  0.22769796     0.03000
C27         C  0.77202109  0.76256825  0.22791584    -0.17600
H28         H  0.77930022  0.77091927  0.20936499     0.05000
H29         H  0.74565502  0.73263907  0.29406780     0.05000
In30       In  0.74784482  0.62047877  0.00183218     1.36900
C31         C  0.70273301  0.59527745  0.00677812     0.78300
O32         O  0.75671560  0.62264864  0.04591690    -0.60100
O33         O  0.74302691  0.65670346  0.02665587    -0.51100
C34         C  0.79400632  0.59636190  0.99812054     0.71000
O35         O  0.77384707  0.58543750  0.00738728    -0.45900
C36         C  0.74249162  0.64426894  0.95441077     0.75700
O37         O  0.72275829  0.58506745  0.99634101    -0.57800
O38         O  0.75236012  0.65516827  0.97470309    -0.47900
O39         O  0.70588324  0.61836400  0.01458470    -0.54200
C40         C  0.75017779  0.64619257  0.04833718     0.85800
O41         O  0.79039946  0.61956583  0.99089974    -0.56100
O42         O  0.73529797  0.62119266  0.95859043    -0.59400
C43         C  0.75067254  0.23913996  0.23093602     0.03000
C44         C  0.75979583  0.22734674  0.25491213     0.03000
C45         C  0.75940808  0.24168483  0.27883645    -0.17600
C46         C  0.75026168  0.26734075  0.27942919     0.03000
C47         C  0.74160034  0.27928004  0.25550297     0.03000
C48         C  0.74202461  0.26505313  0.23151164    -0.17600
H49         H  0.73544046  0.27421254  0.21309250     0.05000
H50         H  0.76667155  0.23293843  0.29719717     0.05000
C51         C  0.74333640  0.26855757  0.72769219     0.03000
C52         C  0.75206450  0.28077477  0.75146773     0.03000
C53         C  0.75241415  0.26681341  0.77564614    -0.17600
C54         C  0.74361320  0.24098966  0.77693726     0.03000
C55         C  0.73488095  0.22869272  0.75315141     0.03000
C56         C  0.73504578  0.24253765  0.72882193    -0.17600
H57         H  0.72842302  0.23302513  0.71063442     0.05000
H58         H  0.75967346  0.27617887  0.79365958     0.05000
In59       In  0.74714188  0.38819936  0.50240292     1.36900
C60         C  0.79497093  0.40849308  0.50174616     0.78300
O61         O  0.74814248  0.38784856  0.54758109    -0.60100
O62         O  0.73785982  0.35311782  0.52755248    -0.51100
C63         C  0.70291762  0.41547204  0.50052057     0.71000
O64         O  0.72383885  0.42478884  0.50982861    -0.45900
C65         C  0.74871986  0.36246765  0.45610907     0.75700
O66         O  0.77515947  0.42086515  0.49373924    -0.57800
O67         O  0.75052981  0.35137628  0.47862808    -0.47900
O68         O  0.79027004  0.38571460  0.50967517    -0.54200
C69         C  0.74204538  0.36416189  0.54972760     0.85800
O70         O  0.70474675  0.39225899  0.49271175    -0.56100
O71         O  0.74655196  0.38686281  0.45745023    -0.59400
In72       In  0.74944813  0.12430970  0.00367992     1.36900
C73         C  0.70197996  0.10287664  0.00330717     0.78300
O74         O  0.75360205  0.12292432  0.04857475    -0.60100
O75         O  0.74597956  0.15932249  0.03025952    -0.51100
C76         C  0.79548952  0.09989159  0.00348063     0.71000
O77         O  0.77434136  0.08838348  0.00895648    -0.45900
C78         C  0.75029422  0.14889001  0.95638918     0.75700
O79         O  0.72233948  0.09045812  0.99679755    -0.57800
O80         O  0.75531649  0.16008700  0.97831891    -0.47900
O81         O  0.70610081  0.12617371  0.00985376    -0.54200
C82         C  0.74978548  0.14694653  0.05181087     0.85800
O83         O  0.79286002  0.12373495  0.99832041    -0.56100
O84         O  0.74463528  0.12513063  0.95881503    -0.59400
In85       In  0.86119766  0.50294110  0.74818138     1.36900
C86         C  0.83413863  0.45857117  0.74557698     0.78300
O87         O  0.86512405  0.51288082  0.70436284    -0.60100
O88         O  0.89721051  0.49481075  0.72356374    -0.51100
C89         C  0.83662122  0.54867883  0.74993475     0.71000
O90         O  0.82641515  0.52853893  0.74003263    -0.45900
C91         C  0.88710555  0.50115952  0.79476981     0.75700
O92         O  0.82565921  0.47851999  0.75741864    -0.57800
O93         O  0.89770795  0.50700197  0.77272956    -0.47900
O94         O  0.85649659  0.46136936  0.73541372    -0.54200
C95         C  0.88799578  0.50392969  0.70201977     0.85800
O96         O  0.85962451  0.54543470  0.75830967    -0.56100
O97         O  0.86315664  0.49566220  0.79283345    -0.59400
In98       In  0.12950806  0.50307082  0.24796297     1.36900
C99         C  0.15340010  0.54938116  0.24833960     0.78300
O100        O  0.12994242  0.49955013  0.20277670    -0.60100
O101        O  0.09383903  0.50743022  0.22167408    -0.51100
C102        C  0.15322403  0.45653814  0.24793948     0.71000
O103        O  0.16506554  0.47750924  0.24298909    -0.45900
C104        C  0.10577514  0.50358543  0.29605433     0.75700
O105        O  0.16548722  0.52818990  0.25137347    -0.57800
O106        O  0.09371887  0.49958722  0.27433324    -0.47900
O107        O  0.12910333  0.54670788  0.24511615    -0.54200
C108        C  0.10584904  0.50385374  0.19985792     0.85800
O109        O  0.12924464  0.45948518  0.25309626    -0.56100
O110        O  0.13000237  0.50706591  0.29299456    -0.59400
C111        C  0.98462224  0.50356983  0.97124433     0.03000
C112        C  0.97292563  0.51219112  0.99547588     0.03000
C113        C  0.98750565  0.51155416  0.01935642    -0.17600
C114        C  0.01333418  0.50220257  0.01989798     0.03000
C115        C  0.02520370  0.49404030  0.99559263     0.03000
C116        C  0.01070331  0.49491067  0.97166911    -0.17600
H117        H  0.01980396  0.48853352  0.95313099     0.05000
H118        H  0.97862790  0.51855076  0.03777613     0.05000
C119        C  0.97413268  0.49005314  0.50207886     0.03000
C120        C  0.98637490  0.50004817  0.52538373     0.03000
C121        C  0.01131253  0.51119355  0.52316057    -0.17600
C122        C  0.02430157  0.51231478  0.49837014     0.03000
C123        C  0.01210906  0.50227814  0.47521314     0.03000
C124        C  0.98719098  0.49120818  0.47729081    -0.17600
H125        H  0.97787605  0.48342948  0.45946969     0.05000
H126        H  0.02071533  0.51907817  0.54088220     0.05000
C127        C  0.51481585  0.49669291  0.03028522     0.03000
C128        C  0.52577728  0.50894113  0.00745522     0.03000
C129        C  0.51174270  0.50974407  0.98328230    -0.17600
C130        C  0.48700136  0.49819866  0.98109168     0.03000
C131        C  0.47630713  0.48514561  0.00362232     0.03000
C132        C  0.49011319  0.48495245  0.02803923    -0.17600
H133        H  0.48152610  0.47557086  0.04544566     0.05000
H134        H  0.52024724  0.51934503  0.96595057     0.05000
In135      In  0.36940018  0.50052965  0.75430236     1.36900
C136        C  0.34514117  0.54655500  0.75432631     0.78300
O137        O  0.40512442  0.50500853  0.78031146    -0.60100
O138        O  0.36944465  0.49459908  0.79900654    -0.51100
C139        C  0.34710112  0.45378276  0.75542636     0.71000
O140        O  0.33527799  0.47416561  0.76266036    -0.45900
C141        C  0.39260866  0.50164698  0.70612955     0.75700
O142        O  0.33385642  0.52576116  0.74753760    -0.57800
O143        O  0.40503433  0.49773649  0.72767875    -0.47900
O144        O  0.36862501  0.54353670  0.76133913    -0.54200
C145        C  0.39342572  0.49942636  0.80192294     0.85800
O146        O  0.37008361  0.45751614  0.74710109    -0.56100
O147        O  0.36836563  0.50486067  0.70940652    -0.59400
C148        C  0.52168196  0.49146405  0.49847656     0.03000
C149        C  0.50934494  0.50084467  0.47494937     0.03000
C150        C  0.48339487  0.50965088  0.47637429    -0.17600
C151        C  0.46929403  0.50904594  0.50065517     0.03000
C152        C  0.48162685  0.49958263  0.52419073     0.03000
C153        C  0.50769524  0.49116365  0.52278536    -0.17600
H154        H  0.51728170  0.48443449  0.54092342     0.05000
H155        H  0.47424473  0.51749039  0.45847673     0.05000
In156      In  0.63832273  0.50460161  0.25472601     1.36900
C157        C  0.66344597  0.55026165  0.25440859     0.78300
O158        O  0.63596576  0.50590007  0.20943960    -0.60100
O159        O  0.60169227  0.49622110  0.23081119    -0.51100
C160        C  0.66412044  0.45942936  0.25528950     0.71000
O161        O  0.67411020  0.48020986  0.24660438    -0.45900
C162        C  0.61342256  0.50799991  0.30204601     0.75700
O163        O  0.67393184  0.52956189  0.26267408    -0.57800
O164        O  0.60264815  0.51329420  0.27992193    -0.47900
O165        O  0.64012833  0.54750639  0.24682575    -0.54200
C166        C  0.61202390  0.50015158  0.20816392     0.85800
O167        O  0.64075488  0.46177795  0.26301124    -0.56100
O168        O  0.63710256  0.50157841  0.29983810    -0.59400
C169        C  0.26805564  0.27432512  0.75247082     0.03000
C170        C  0.25672447  0.26241757  0.77524318     0.03000
C171        C  0.24692311  0.23703872  0.77314248    -0.17600
C172        C  0.24806557  0.22335119  0.74880313     0.03000
C173        C  0.25885716  0.23561669  0.72587057     0.03000
C174        C  0.26903716  0.26083682  0.72807754    -0.17600
H175        H  0.27751155  0.27017892  0.71057939     0.05000
H176        H  0.23809972  0.22791621  0.79057930     0.05000
In177      In  0.25347304  0.12059553  0.49881776     1.36900
C178        C  0.30006011  0.09728719  0.49671157     0.78300
O179        O  0.25307847  0.12141012  0.45397082    -0.60100
O180        O  0.24828907  0.15726228  0.47436162    -0.51100
C181        C  0.20763629  0.09554164  0.49920966     0.71000
O182        O  0.22833195  0.08547210  0.49027117    -0.45900
C183        C  0.25780667  0.14502195  0.54583734     0.75700
O184        O  0.28000899  0.08648182  0.50641118    -0.57800
O185        O  0.25373572  0.15683224  0.52401897    -0.47900
O186        O  0.29624345  0.12020873  0.48856758    -0.54200
C187        C  0.24995807  0.14565859  0.45210756     0.85800
O188        O  0.21065838  0.11818043  0.50826650    -0.56100
O189        O  0.25976811  0.12069075  0.54345072    -0.59400
C190        C  0.22942047  0.27469184  0.24633833     0.03000
C191        C  0.23940613  0.26261931  0.22295031     0.03000
C192        C  0.24924710  0.23715300  0.22454840    -0.17600
C193        C  0.24988360  0.22360444  0.24903650     0.03000
C194        C  0.23964878  0.23564141  0.27230810     0.03000
C195        C  0.22944491  0.26094624  0.27069598    -0.17600
H196        H  0.22189960  0.27020453  0.28867011     0.05000
H197        H  0.25719349  0.22805122  0.20667431     0.05000
In198      In  0.24848861  0.38376359  0.99831211     1.36900
C199        C  0.29548145  0.40629841  0.99809713     0.78300
O200        O  0.24098224  0.38189240  0.04304647    -0.60100
O201        O  0.25369626  0.34783909  0.02338045    -0.51100
C202        C  0.20365105  0.41019577  0.99493289     0.71000
O203        O  0.22416053  0.41997957  0.00474153    -0.45900
C204        C  0.24821722  0.35852247  0.95155811     0.75700
O205        O  0.27475101  0.41852625  0.99263689    -0.57800
O206        O  0.23897067  0.34906591  0.97292090    -0.47900
O207        O  0.29186531  0.38273288  0.00399784    -0.54200
C208        C  0.24714720  0.35822693  0.04526315     0.85800
O209        O  0.20623004  0.38696102  0.98744901    -0.56100
O210        O  0.25784357  0.38094730  0.95428499    -0.59400
In211      In  0.62981034  0.00351662  0.74720995     1.36900
C212        C  0.65561885  0.04875590  0.74671496     0.78300
O213        O  0.62968141  0.99671314  0.70266710    -0.60100
O214        O  0.59401103  0.00728492  0.72116137    -0.51100
C215        C  0.65147498  0.95627934  0.74919935     0.71000
O216        O  0.66388118  0.97610263  0.74138925    -0.45900
C217        C  0.60427504  0.00696028  0.79388756     0.75700
O218        O  0.66580261  0.02778943  0.75471463    -0.57800
O219        O  0.62863553  0.01024828  0.79187195    -0.47900
O220        O  0.63245656  0.04629295  0.73844400    -0.54200
C221        C  0.60558247  0.00104824  0.69971153     0.85800
O222        O  0.62823781  0.96087418  0.75609574    -0.56100
O223        O  0.59312354  0.00194424  0.77193264    -0.59400
In224      In  0.36558324  0.00297804  0.24637276     1.36900
C225        C  0.33930686  0.04815755  0.24723069     0.78300
O226        O  0.36804133  0.99970998  0.29128894    -0.60100
O227        O  0.40334698  0.99989110  0.26912574    -0.51100
C228        C  0.34229405  0.95651949  0.24610802     0.71000
O229        O  0.33170598  0.97653610  0.25592564    -0.45900
C230        C  0.39078036  0.00644765  0.19967438     0.75700
O231        O  0.33075003  0.02800026  0.23592016    -0.57800
O232        O  0.40190704  0.00967079  0.22200079    -0.47900
O233        O  0.36137481  0.04518099  0.25799440    -0.54200
C234        C  0.39270813  0.99887257  0.29195937     0.85800
O235        O  0.36488624  0.96032736  0.23685467    -0.56100
O236        O  0.36657819  0.00207372  0.20138278    -0.59400
C237        C  0.52048000  0.02616249  0.99478104     0.03000
C238        C  0.50829188  0.01789494  0.97082895     0.03000
C239        C  0.48277231  0.00781652  0.97189151    -0.17600
C240        C  0.46932000  0.00571302  0.99641699     0.03000
C241        C  0.48146821  0.01461520  0.02016544     0.03000
C242        C  0.50685104  0.02470019  0.01907786    -0.17600
H243        H  0.51625926  0.03113098  0.03742003     0.05000
H244        H  0.47358915  0.00092154  0.95362285     0.05000
C245        C  0.51435014  0.99487153  0.51966192     0.03000
C246        C  0.52627128  0.98439695  0.49639458     0.03000
C247        C  0.51230651  0.98429723  0.47210952    -0.17600
C248        C  0.48703646  0.99489484  0.47030411     0.03000
C249        C  0.47550245  0.00601791  0.49348119     0.03000
C250        C  0.48921774  0.00563379  0.51786350    -0.17600
H251        H  0.48028134  0.01399014  0.53564322     0.05000
H252        H  0.52131815  0.97605573  0.45432163     0.05000
C253        C  0.24427735  0.74056416  0.27372879     0.03000
C254        C  0.23435432  0.72915282  0.24999055     0.03000
C255        C  0.23604252  0.74292676  0.22569490    -0.17600
C256        C  0.24632767  0.76826223  0.22456926     0.03000
C257        C  0.25551623  0.77993116  0.24856640     0.03000
C258        C  0.25446330  0.76588391  0.27276364    -0.17600
H259        H  0.26203735  0.77461455  0.29098163     0.05000
H260        H  0.22925512  0.73374382  0.20739919     0.05000
In261      In  0.24736920  0.62299296  0.50025647     1.36900
C262        C  0.29311457  0.59810393  0.49993403     0.78300
O263        O  0.24287849  0.62214170  0.45538751    -0.60100
O264        O  0.25072050  0.65834532  0.47367397    -0.51100
C265        C  0.20076629  0.59938643  0.50148824     0.71000
O266        O  0.22138340  0.58831620  0.49361205    -0.45900
C267        C  0.25168049  0.64917962  0.54637340     0.75700
O268        O  0.27229794  0.58773762  0.50838188    -0.57800
O269        O  0.24421510  0.65959038  0.52474821    -0.47900
O270        O  0.29020243  0.62105394  0.49157704    -0.54200
C271        C  0.24675663  0.64612155  0.45209627     0.85800
O272        O  0.20420301  0.62240150  0.50938770    -0.56100
O273        O  0.25645340  0.62518643  0.54435253    -0.59400
C274        C  0.27088806  0.72855734  0.74904108     0.03000
C275        C  0.26306471  0.74099692  0.72502820     0.03000
C276        C  0.25325899  0.76647252  0.72602009    -0.17600
C277        C  0.25142506  0.77992911  0.75038521     0.03000
C278        C  0.25959029  0.76762281  0.77437729     0.03000
C279        C  0.26896167  0.74198848  0.77340611    -0.17600
H280        H  0.27471875  0.73231868  0.79184281     0.05000
H281        H  0.24659425  0.77577268  0.70770282     0.05000
In282      In  0.25018535  0.88690429  0.99842485     1.36900
C283        C  0.20338766  0.91009570  0.99583090     0.78300
O284        O  0.25741154  0.88481891  0.95388839    -0.60100
O285        O  0.24690267  0.85025685  0.97425003    -0.51100
C286        C  0.29466109  0.91437032  0.99969498     0.71000
O287        O  0.27388150  0.92268388  0.98917211    -0.45900
C288        C  0.25028818  0.86135784  0.04524083     0.75700
O289        O  0.22329584  0.92093318  0.00570755    -0.57800
O290        O  0.25817341  0.85145296  0.02353699    -0.47900
O291        O  0.20737306  0.88712958  0.98805525    -0.54200
C292        C  0.25254034  0.86084592  0.95215786     0.85800
O293        O  0.29265268  0.89187513  0.00949794    -0.56100
O294        O  0.24175657  0.88428529  0.04275084    -0.59400
In295      In  0.13698787  0.00080504  0.75040663     1.36900
C296        C  0.16241485  0.95539579  0.75341173     0.78300
O297        O  0.13434590  0.01064518  0.79423164    -0.60100
O298        O  0.10062759  0.99565010  0.77513628    -0.51100
C299        C  0.16151241  0.04655315  0.74788098     0.71000
O300        O  0.17199657  0.02643082  0.75761790    -0.45900
C301        C  0.11202801  0.99764754  0.70346319     0.75700
O302        O  0.17165714  0.97505834  0.74163278    -0.57800
O303        O  0.10064672  0.00375319  0.72505098    -0.47900
O304        O  0.14022644  0.95910330  0.76369573    -0.54200
C305        C  0.11076184  0.00383451  0.79663436     0.85800
O306        O  0.13842759  0.04318332  0.73981962    -0.56100
O307        O  0.13605223  0.99294877  0.70618027    -0.59400
In308      In  0.87304640  0.00598775  0.25115311     1.36900
C309        C  0.85136375  0.95869499  0.24836223     0.78300
O310        O  0.87185684  0.01163925  0.20639191    -0.60100
O311        O  0.90876956  0.00698368  0.22474687    -0.51100
C312        C  0.84909489  0.05195805  0.25627802     0.71000
O313        O  0.83710109  0.03127389  0.25046183    -0.45900
C314        C  0.89634765  0.00234608  0.29871965     0.75700
O315        O  0.83808397  0.97922116  0.25127159    -0.57800
O316        O  0.87215296  0.99891287  0.29546956    -0.47900
O317        O  0.87562797  0.96263821  0.24655376    -0.54200
C318        C  0.89627882  0.01045101  0.20321529     0.85800
O319        O  0.87332437  0.04893886  0.25955236    -0.56100
O320        O  0.90863306  0.00769909  0.27742314    -0.59400
C321        C  0.97469101  0.01802920  0.00031033     0.03000
C322        C  0.98782954  0.00910268  0.02349299     0.03000
C323        C  0.01305191  0.99860585  0.02118304    -0.17600
C324        C  0.02564501  0.99709621  0.99615081     0.03000
C325        C  0.01263569  0.00640840  0.97295830     0.03000
C326        C  0.98738570  0.01688412  0.97533719    -0.17600
H327        H  0.97744585  0.02401042  0.95756400     0.05000
H328        H  0.02291361  0.99145873  0.03899267     0.05000
C329        C  0.97584225  0.99416691  0.50268003     0.03000
C330        C  0.98614388  0.00514892  0.47886212     0.03000
C331        C  0.01124927  0.01612029  0.47907609    -0.17600
C332        C  0.02649811  0.01633404  0.50246541     0.03000
C333        C  0.01631420  0.00507816  0.52620954     0.03000
C334        C  0.99112747  0.99425181  0.52605287    -0.17600
H335        H  0.98353975  0.98536737  0.54421896     0.05000
H336        H  0.01921768  0.02410919  0.46063753     0.05000
C337        C  0.96611282  0.03326939  0.09169066    -0.01300
C338        C  0.94918173  0.01320353  0.10011570     0.07300
C339        C  0.94479485  0.99189872  0.08311316    -0.07300
C340        C  0.95733154  0.99021194  0.05815306     0.04700
C341        C  0.97504332  0.00974867  0.05021317    -0.14500
C342        C  0.97944691  0.03106664  0.06719510    -0.07800
C343        C  0.93597894  0.01385337  0.12666546     0.05700
C344        C  0.90881491  0.01728457  0.12776929    -0.08900
C345        C  0.89546636  0.01693784  0.15238223     0.00700
C346        C  0.90939531  0.01251303  0.17657577     0.00500
C347        C  0.93672649  0.00946358  0.17529483    -0.12500
C348        C  0.95002850  0.01019814  0.15070479     0.01000
C349        C  0.86758665  0.02140322  0.15198484     0.40300
C350        C  0.97804069  0.00654306  0.15055444     0.36900
C351        C  0.96890096  0.05684623  0.10715202     0.36700
C352        C  0.95158115  0.96845473  0.04084605     0.37400
N353        N  0.84526268  0.02513898  0.15155785    -0.43400
N354        N  0.00050073  0.00372055  0.15041668    -0.43800
N355        N  0.94690979  0.95111792  0.02684908    -0.41200
N356        N  0.97076804  0.07588630  0.11938195    -0.42600
H357        H  0.99254687  0.04644923  0.06080138     0.13500
H358        H  0.93150916  0.97662250  0.08935504     0.10000
H359        H  0.89801754  0.02029763  0.10927296     0.11100
H360        H  0.94781373  0.00620572  0.19354711     0.16900
C361        C  0.97051045  0.98652793  0.40741667    -0.01300
C362        C  0.94739619  0.00069903  0.40242301     0.07300
C363        C  0.93653256  0.01598194  0.42294871    -0.07300
C364        C  0.94878041  0.01784452  0.44802855     0.04700
C365        C  0.97204529  0.00383225  0.45290377    -0.14500
C366        C  0.98264077  0.98826280  0.43248100    -0.07800
C367        C  0.93474739  0.00058548  0.37565309     0.05700
C368        C  0.90991196  0.98940996  0.37286745    -0.08900
C369        C  0.89716390  0.98928993  0.34797697     0.00700
C370        C  0.90929797  0.00081451  0.32531530     0.00500
C371        C  0.93431786  0.01175706  0.32821015    -0.12500
C372        C  0.94699291  0.01184445  0.35308619     0.01000
C373        C  0.87196731  0.97671580  0.34629055     0.40300
C374        C  0.97227373  0.02420093  0.35516487     0.36900
C375        C  0.98210010  0.97007816  0.38714218     0.36700
C376        C  0.93779405  0.03513193  0.46788742     0.37400
N377        N  0.85180635  0.96658081  0.34490353    -0.43400
N378        N  0.99257929  0.03397849  0.35693520    -0.43800
N379        N  0.92889985  0.04917022  0.48359789    -0.41200
N380        N  0.99145773  0.95703105  0.37081642    -0.42600
H381        H  0.00046193  0.97738006  0.43621287     0.13500
H382        H  0.91884360  0.02702925  0.41908630     0.10000
H383        H  0.90054582  0.98061930  0.39020102     0.11100
H384        H  0.94385582  0.02075891  0.31110337     0.16900
C385        C  0.04626711  0.02938476  0.90961718    -0.01300
C386        C  0.05175849  0.00573975  0.89637131     0.07300
C387        C  0.04308020  0.98227687  0.90778866    -0.07300
C388        C  0.02964677  0.98211388  0.93234186     0.04700
C389        C  0.02511042  0.00568740  0.94604576    -0.14500
C390        C  0.03284497  0.02918831  0.93413003    -0.07800
C391        C  0.06666937  0.00516287  0.87071711     0.05700
C392        C  0.09256920  0.01413858  0.87038183    -0.08900
C393        C  0.10724861  0.01429383  0.84659556     0.00700
C394        C  0.09607871  0.00488404  0.82244581     0.00500
C395        C  0.07007815  0.99592142  0.82293873    -0.12500
C396        C  0.05537633  0.99609022  0.84668959     0.01000
C397        C  0.13351819  0.02453214  0.84774977     0.40300
C398        C  0.02848177  0.98759330  0.84574617     0.36900
C399        C  0.05398143  0.05407885  0.89827851     0.36700
C400        C  0.02000037  0.95770891  0.94271921     0.37400
N401        N  0.15451656  0.03287107  0.84877156    -0.43400
N402        N  0.00690424  0.98085105  0.84500496    -0.43800
N403        N  0.01208230  0.93819613  0.95099258    -0.41200
N404        N  0.06024085  0.07382246  0.88913348    -0.42600
H405        H  0.02886315  0.04739994  0.94433776     0.13500
H406        H  0.04691689  0.96406440  0.89753049     0.10000
H407        H  0.10131693  0.02116394  0.88884167     0.11100
H408        H  0.06106048  0.98882387  0.80466170     0.16900
C409        C  0.05950372  0.00748522  0.65084231    -0.01300
C410        C  0.07180958  0.99834840  0.62727516     0.07300
C411        C  0.09713516  0.98797399  0.62899920    -0.07300
C412        C  0.11034828  0.98681626  0.65360858     0.04700
C413        C  0.09838124  0.99678086  0.67713324    -0.14500
C414        C  0.07283749  0.00677375  0.67537448    -0.07800
C415        C  0.05865021  0.99980845  0.60067413     0.05700
C416        C  0.05070252  0.02419959  0.59087802    -0.08900
C417        C  0.03707789  0.02637747  0.56661952     0.00700
C418        C  0.03157781  0.00389859  0.55147631     0.00500
C419        C  0.03994024  0.97955643  0.56093890    -0.12500
C420        C  0.05346254  0.97733944  0.58527464     0.01000
C421        C  0.02796276  0.05170036  0.55829499     0.40300
C422        C  0.06106282  0.95175425  0.59438735     0.36900
C423        C  0.03297834  0.01718104  0.65046442     0.36700
C424        C  0.13589613  0.97481849  0.65404126     0.37400
N425        N  0.02058281  0.07203178  0.55178424    -0.43400
N426        N  0.06724414  0.93125857  0.60164263    -0.43800
N427        N  0.15629789  0.96504862  0.65443475    -0.41200
N428        N  0.01171399  0.02491128  0.65011245    -0.42600
H429        H  0.06321870  0.01422400  0.69320498     0.13500
H430        H  0.10666327  0.98081727  0.61098199     0.10000
H431        H  0.05479374  0.04156514  0.60249025     0.11100
H432        H  0.03569400  0.96222677  0.54932296     0.16900
C433        C  0.14874217  0.95821984  0.00917242    -0.01300
C434        C  0.12843057  0.94892901  0.99256469     0.07300
C435        C  0.13323509  0.92728046  0.97608934    -0.07300
C436        C  0.15742274  0.91438469  0.97661134     0.04700
C437        C  0.17757346  0.92330765  0.99378712    -0.14500
C438        C  0.17298989  0.94551061  0.00954673    -0.07800
C439        C  0.10187041  0.96100352  0.99276902     0.05700
C440        C  0.09907898  0.98757645  0.98672981    -0.08900
C441        C  0.07460810  0.99982257  0.98826385     0.00700
C442        C  0.05214104  0.98517843  0.99476851     0.00500
C443        C  0.05488675  0.95864473  0.00077744    -0.12500
C444        C  0.07944230  0.94654689  0.00000865     0.01000
C445        C  0.07330840  0.02766119  0.98475568     0.40300
C446        C  0.08129884  0.91957769  0.00792698     0.36900
C447        C  0.14491785  0.98018561  0.02679747     0.36700
C448        C  0.16101081  0.89237376  0.95896748     0.37400
N449        N  0.07235661  0.05002270  0.98222216    -0.43400
N450        N  0.08289575  0.89799716  0.01436416    -0.43800
N451        N  0.16384931  0.87475624  0.94479521    -0.41200
N452        N  0.14184726  0.99784435  0.04085255    -0.42600
H453        H  0.18822900  0.95268505  0.02273340     0.13500
H454        H  0.11789731  0.92030323  0.96290134     0.10000
H455        H  0.11619960  0.99892758  0.98143752     0.11100
H456        H  0.03775890  0.94740219  0.00631405     0.16900
C457        C  0.20020643  0.83280282  0.74690766    -0.01300
C458        C  0.21486753  0.85534375  0.75271882     0.07300
C459        C  0.24192959  0.85311397  0.75704620    -0.07300
C460        C  0.25437624  0.82883081  0.75577597     0.04700
C461        C  0.23958601  0.80629157  0.75039910    -0.14500
C462        C  0.21264212  0.80857751  0.74568596    -0.07800
C463        C  0.20235213  0.88144217  0.75352181     0.05700
C464        C  0.18353645  0.88679011  0.77329716    -0.08900
C465        C  0.17039458  0.91073484  0.77385500     0.00700
C466        C  0.17628081  0.93002134  0.75445000     0.00500
C467        C  0.19553931  0.92474700  0.73502870    -0.12500
C468        C  0.20838211  0.90067956  0.73430683     0.01000
C469        C  0.15127015  0.91499603  0.79476882     0.40300
C470        C  0.22686991  0.89570747  0.71297387     0.36900
C471        C  0.17248817  0.83413883  0.74155923     0.36700
C472        C  0.28236446  0.82753574  0.75928663     0.37400
N473        N  0.13592393  0.91839473  0.81151312    -0.43400
N474        N  0.24164353  0.89156268  0.69587788    -0.43800
N475        N  0.30482772  0.82649800  0.76191894    -0.41200
N476        N  0.15027295  0.83523630  0.73727000    -0.42600
H477        H  0.20124776  0.79127566  0.74142899     0.13500
H478        H  0.25333275  0.87041276  0.76126410     0.10000
H479        H  0.17896814  0.87207699  0.78821334     0.11100
H480        H  0.20011426  0.93921598  0.71987287     0.16900
C481        C  0.23143522  0.80342387  0.83419427    -0.01300
C482        C  0.25381631  0.80711668  0.85020310     0.07300
C483        C  0.27799524  0.79736385  0.84160371    -0.07300
C484        C  0.28026148  0.78440381  0.81705040     0.04700
C485        C  0.25791458  0.78086020  0.80079843    -0.14500
C486        C  0.23357532  0.79003613  0.80986876    -0.07800
C487        C  0.25261304  0.82107438  0.87608012     0.05700
C488        C  0.25357914  0.80666738  0.89991084    -0.08900
C489        C  0.25375694  0.81910863  0.92488983     0.00700
C490        C  0.25287611  0.84661707  0.92623108     0.00500
C491        C  0.25205892  0.86096530  0.90214255    -0.12500
C492        C  0.25197261  0.84841408  0.87718580     0.01000
C493        C  0.25584236  0.80307762  0.94861422     0.40300
C494        C  0.25188900  0.86382578  0.85290123     0.36900
C495        C  0.20612786  0.81308871  0.84234292     0.36700
C496        C  0.30579655  0.77540652  0.80877471     0.37400
N497        N  0.25764341  0.79015613  0.96756772    -0.43400
N498        N  0.25191400  0.87593201  0.83329126    -0.43800
N499        N  0.32623010  0.76807249  0.80220164    -0.41200
N500        N  0.18579320  0.82085364  0.84870357    -0.42600
H501        H  0.21619991  0.78675784  0.79789612     0.13500
H502        H  0.29519432  0.80020594  0.85399597     0.10000
H503        H  0.25450620  0.78560065  0.89893389     0.11100
H504        H  0.25145617  0.88204308  0.90276187     0.16900
C505        C  0.26889700  0.66306919  0.61899997    -0.01300
C506        C  0.25975242  0.68870266  0.62237891     0.07300
C507        C  0.24917819  0.70200947  0.60035628    -0.07300
C508        C  0.24673748  0.68984438  0.57530458     0.04700
C509        C  0.25473223  0.66361349  0.57209196    -0.14500
C510        C  0.26609714  0.65068136  0.59413255    -0.07800
C511        C  0.26067278  0.70181491  0.64887052     0.05700
C512        C  0.27731814  0.72321150  0.65238429    -0.08900
C513        C  0.27859250  0.73607351  0.67712336     0.00700
C514        C  0.26319479  0.72730913  0.69886776     0.00500
C515        C  0.24644399  0.70601988  0.69527945    -0.12500
C516        C  0.24492082  0.69338291  0.67047689     0.01000
C517        C  0.29602162  0.75800070  0.67986690     0.40300
C518        C  0.22636968  0.67244537  0.66735525     0.36900
C519        C  0.28170832  0.64940423  0.64068862     0.36700
C520        C  0.23583532  0.70484789  0.55349576     0.37400
N521        N  0.31000881  0.77554205  0.68220662    -0.43400
N522        N  0.21142983  0.65573018  0.66482435    -0.43800
N523        N  0.22720762  0.71700560  0.53604694    -0.41200
N524        N  0.29205273  0.63871148  0.65817413    -0.42600
H525        H  0.27296007  0.63082785  0.59196665     0.13500
H526        H  0.24249867  0.72189890  0.60287242     0.10000
H527        H  0.28934090  0.72981642  0.63576774     0.11100
H528        H  0.23410544  0.69964776  0.71175199     0.16900
C529        C  0.25664933  0.69783831  0.39874000    -0.01300
C530        C  0.24781716  0.68531037  0.37526014     0.07300
C531        C  0.23937984  0.65942076  0.37682881    -0.07300
C532        C  0.23887156  0.64617562  0.40147791     0.04700
C533        C  0.24704054  0.65895066  0.42526898    -0.14500
C534        C  0.25602999  0.68473972  0.42340651    -0.07800
C535        C  0.24645030  0.69923098  0.34909661     0.05700
C536        C  0.26269610  0.69138950  0.32784303    -0.08900
C537        C  0.26223409  0.70458152  0.30316928     0.00700
C538        C  0.24537957  0.72606742  0.29956253     0.00500
C539        C  0.22938996  0.73405762  0.32093692    -0.12500
C540        C  0.22925115  0.72039551  0.34527745     0.01000
C541        C  0.27977134  0.69631469  0.28209320     0.40300
C542        C  0.21057909  0.72769648  0.36571342     0.36900
C543        C  0.26680762  0.72403414  0.39788912     0.36700
C544        C  0.22928225  0.61976148  0.40164109     0.37400
N545        N  0.29375752  0.68980790  0.26508380    -0.43400
N546        N  0.19552717  0.73323949  0.38211801    -0.43800
N547        N  0.22156231  0.59860057  0.40168985    -0.41200
N548        N  0.27494112  0.74502344  0.39710295    -0.42600
H549        H  0.26277352  0.69474176  0.44126684     0.13500
H550        H  0.23265627  0.64970617  0.35878117     0.10000
H551        H  0.27594051  0.67512582  0.33065622     0.11100
H552        H  0.21646092  0.75059441  0.31830938     0.16900
C553        C  0.27332144  0.80525726  0.16435665    -0.01300
C554        C  0.25075651  0.80877434  0.14852598     0.07300
C555        C  0.22686007  0.79857414  0.15743427    -0.07300
C556        C  0.22508213  0.78520562  0.18187986     0.04700
C557        C  0.24759417  0.78186530  0.19804193    -0.14500
C558        C  0.27164582  0.79169079  0.18874347    -0.07800
C559        C  0.25153235  0.82282847  0.12245791     0.05700
C560        C  0.26337814  0.81092416  0.10024959    -0.08900
C561        C  0.26329609  0.82295190  0.07495163     0.00700
C562        C  0.25110791  0.84754012  0.07155718     0.00500
C563        C  0.23962323  0.85952310  0.09408316    -0.12500
C564        C  0.23972090  0.84740298  0.11930391     0.01000
C565        C  0.27602457  0.80952806  0.05307489     0.40300
C566        C  0.22788477  0.86065627  0.14180883     0.36900
C567        C  0.29821930  0.81594015  0.15626033     0.36700
C568        C  0.19978715  0.77555234  0.19009084     0.37400
N569        N  0.28627604  0.79869172  0.03562000    -0.43400
N570        N  0.21846350  0.87122310  0.15991373    -0.43800
N571        N  0.17957289  0.76761130  0.19659595    -0.41200
N572        N  0.31814891  0.82459350  0.14979769    -0.42600
H573        H  0.28918288  0.78880619  0.20058764     0.13500
H574        H  0.20949694  0.80114585  0.14521093     0.10000
H575        H  0.27247918  0.79199376  0.10266449     0.11100
H576        H  0.23040506  0.87842558  0.09203709     0.16900
C577        C  0.36264678  0.93568309  0.02054080    -0.01300
C578        C  0.36753769  0.95656430  0.00288952     0.07300
C579        C  0.34805817  0.96422999  0.98475588    -0.07300
C580        C  0.32409541  0.95107745  0.98354373     0.04700
C581        C  0.31936265  0.92957773  0.00066749    -0.14500
C582        C  0.33881499  0.92228520  0.01918655    -0.07800
C583        C  0.39343665  0.96955420  0.00172576     0.05700
C584        C  0.41494784  0.95541274  0.99208290    -0.08900
C585        C  0.43962517  0.96697870  0.98985127     0.00700
C586        C  0.44303640  0.99330515  0.99709199     0.00500
C587        C  0.42144134  0.00749817  0.00665418    -0.12500
C588        C  0.39681202  0.99578259  0.00922362     0.01000
C589        C  0.46134410  0.95117468  0.98101132     0.40300
C590        C  0.37553419  0.01069378  0.02048614     0.36900
C591        C  0.38162897  0.92806577  0.04052090     0.36700
C592        C  0.30520656  0.95962437  0.96389079     0.37400
N593        N  0.47878865  0.93854101  0.97395947    -0.43400
N594        N  0.35852471  0.02258307  0.02970794    -0.43800
N595        N  0.29008544  0.96652632  0.94813667    -0.41200
N596        N  0.39681948  0.92215777  0.05662851    -0.42600
H597        H  0.33536911  0.90615313  0.03278472     0.13500
H598        H  0.35184530  0.98023289  0.97107869     0.10000
H599        H  0.41242166  0.93521756  0.98634837     0.11100
H600        H  0.42396480  0.02764882  0.01253184     0.16900
C601        C  0.29710365  0.90139744  0.26566735    -0.01300
C602        C  0.30446171  0.88160469  0.24756858     0.07300
C603        C  0.32398543  0.88669102  0.22846041    -0.07300
C604        C  0.33644700  0.91094068  0.22741009     0.04700
C605        C  0.32934480  0.93071149  0.24581202    -0.14500
C606        C  0.30945646  0.92568304  0.26459727    -0.07800
C607        C  0.29200486  0.85549216  0.24821566     0.05700
C608        C  0.26522759  0.85323001  0.24245601    -0.08900
C609        C  0.25282848  0.82893112  0.24284526     0.00700
C610        C  0.26738362  0.80632170  0.24886671     0.00500
C611        C  0.29408191  0.80864678  0.25495230    -0.12500
C612        C  0.30647872  0.83291874  0.25452464     0.01000
C613        C  0.22511462  0.82777277  0.23752644     0.40300
C614        C  0.33397768  0.83423536  0.26096370     0.36900
C615        C  0.27745432  0.89699747  0.28601239     0.36700
C616        C  0.35577861  0.91515978  0.20668146     0.37400
N617        N  0.20288578  0.82697122  0.23325870    -0.43400
N618        N  0.35603172  0.83530867  0.26605251    -0.43800
N619        N  0.37119190  0.91853534  0.18999597    -0.41200
N620        N  0.26169800  0.89346435  0.30231213    -0.42600
H621        H  0.30383549  0.94062193  0.27885396     0.13500
H622        H  0.32940209  0.87164972  0.21422456     0.10000
H623        H  0.25400741  0.87052787  0.23763078     0.11100
H624        H  0.30534299  0.79134256  0.25966199     0.16900
C625        C  0.40413371  0.99749725  0.12550101    -0.01300
C626        C  0.42986811  0.00696755  0.12298936     0.07300
C627        C  0.44285056  0.01644398  0.14572031    -0.07300
C628        C  0.43068086  0.01648211  0.17090438     0.04700
C629        C  0.40477847  0.00708168  0.17355917    -0.14500
C630        C  0.39183916  0.99765072  0.15062014    -0.07800
C631        C  0.44324842  0.00836670  0.09666035     0.05700
C632        C  0.44898170  0.03295008  0.08595434    -0.08900
C633        C  0.46163397  0.03533969  0.06119406     0.00700
C634        C  0.46843255  0.01281621  0.04662485     0.00500
C635        C  0.46305912  0.98820622  0.05748886    -0.12500
C636        C  0.45073696  0.98581994  0.08245679     0.01000
C637        C  0.46725004  0.06105444  0.05101115     0.40300
C638        C  0.44687065  0.96015327  0.09354101     0.36900
C639        C  0.38977445  0.98809453  0.10250345     0.36700
C640        C  0.44521316  0.02671216  0.19337823     0.37400
N641        N  0.47195667  0.08162688  0.04288811    -0.43400
N642        N  0.44391345  0.93957089  0.10246640    -0.43800
N643        N  0.45698223  0.03492098  0.21130687    -0.41200
N644        N  0.37832057  0.98048469  0.08408642    -0.42600
H645        H  0.37202851  0.99028852  0.15226424     0.13500
H646        H  0.46260880  0.02389626  0.14371755     0.10000
H647        H  0.44347867  0.05030432  0.09698620     0.11100
H648        H  0.46878970  0.97087200  0.04654728     0.16900
C649        C  0.40658162  0.99543271  0.36664305    -0.01300
C650        C  0.43406866  0.99623100  0.36747901     0.07300
C651        C  0.44825365  0.99697821  0.34340942    -0.07300
C652        C  0.43538785  0.99738128  0.31853614     0.04700
C653        C  0.40765095  0.99725848  0.31756851    -0.14500
C654        C  0.39363070  0.99605587  0.34188806    -0.07800
C655        C  0.44827244  0.99624687  0.39340643     0.05700
C656        C  0.45595286  0.97246657  0.40467805    -0.08900
C657        C  0.46844260  0.97160307  0.42969416     0.00700
C658        C  0.47362195  0.99493424  0.44375537     0.00500
C659        C  0.46617716  0.01874514  0.43218645    -0.12500
C660        C  0.45334392  0.01953432  0.40736632     0.01000
C661        C  0.47483322  0.94649176  0.44093708     0.40300
C662        C  0.44525133  0.04440065  0.39674905     0.36900
C663        C  0.39135198  0.99389399  0.39103351     0.36700
C664        C  0.45127186  0.99792845  0.29453692     0.37400
N665        N  0.47982857  0.92633766  0.44995749    -0.43400
N666        N  0.43868437  0.06435812  0.38835031    -0.43800
N667        N  0.46404932  0.99828871  0.27533424    -0.41200
N668        N  0.37929790  0.99256630  0.41067098    -0.42600
H669        H  0.37242685  0.99569582  0.34165479     0.13500
H670        H  0.46945842  0.99732903  0.34409885     0.10000
H671        H  0.45176894  0.95452121  0.39408072     0.11100
H672        H  0.47035041  0.03677354  0.44261735     0.16900
C673        C  0.55907918  0.00109302  0.91843096    -0.01300
C674        C  0.55066255  0.01579458  0.89612801     0.07300
C675        C  0.52816471  0.03131322  0.89841608    -0.07300
C676        C  0.51417924  0.03247492  0.92261492     0.04700
C677        C  0.52262822  0.01773886  0.94490501    -0.14500
C678        C  0.54500179  0.00209180  0.94248454    -0.07800
C679        C  0.56443124  0.01432532  0.86993427     0.05700
C680        C  0.55191342  0.00208662  0.84836857    -0.08900
C681        C  0.56445204  0.99931077  0.82351501     0.00700
C682        C  0.59009845  0.00910745  0.81986629     0.00500
C683        C  0.60251562  0.02150290  0.84157329    -0.12500
C684        C  0.58986936  0.02430596  0.86638893     0.01000
C685        C  0.55072258  0.98561326  0.80252561     0.40300
C686        C  0.60309388  0.03793118  0.88778792     0.36900
C687        C  0.58167280  0.98429523  0.91689616     0.36700
C688        C  0.49150790  0.04916912  0.92424877     0.37400
N689        N  0.53968150  0.97456979  0.78577083    -0.43400
N690        N  0.61357704  0.04885811  0.90499579    -0.43800
N691        N  0.47332278  0.06253271  0.92556694    -0.41200
N692        N  0.59982554  0.97088220  0.91571849    -0.42600
H693        H  0.55130271  0.99035604  0.95938564     0.13500
H694        H  0.52159523  0.04257322  0.88126819     0.10000
H695        H  0.53238466  0.99427744  0.85113952     0.11100
H696        H  0.62206396  0.02932752  0.83909813     0.16900
C697        C  0.53002668  0.97848284  0.59202554    -0.01300
C698        C  0.55096925  0.99552884  0.59757349     0.07300
C699        C  0.56004861  0.01216614  0.57722778    -0.07300
C700        C  0.54845239  0.01223778  0.55174957     0.04700
C701        C  0.52761229  0.99514111  0.54617763    -0.14500
C702        C  0.51848988  0.97850173  0.56649647    -0.07800
C703        C  0.56421632  0.99609357  0.62414878     0.05700
C704        C  0.59040828  0.98817872  0.62569293    -0.08900
C705        C  0.60424183  0.98940328  0.64993805     0.00700
C706        C  0.59183912  0.99897237  0.67341859     0.00500
C707        C  0.56546165  0.00669608  0.67178870    -0.12500
C708        C  0.55167335  0.00539747  0.64749172     0.01000
C709        C  0.63102831  0.98048253  0.64990989     0.40300
C710        C  0.52492399  0.01441540  0.64686626     0.36900
C711        C  0.52032758  0.96055357  0.61201330     0.36700
C712        C  0.55763422  0.03064268  0.53198654     0.37400
N713        N  0.65247938  0.97326826  0.64976835    -0.43400
N714        N  0.50346598  0.02159279  0.64644973    -0.43800
N715        N  0.56496258  0.04555694  0.51627586    -0.41200
N716        N  0.51243173  0.94623061  0.62802371    -0.42600
H717        H  0.50239952  0.96538588  0.56229661     0.13500
H718        H  0.57606183  0.02537970  0.58141343     0.10000
H719        H  0.60010703  0.98100750  0.60777013     0.11100
H720        H  0.55557420  0.01407425  0.68949475     0.16900
C721        C  0.25862181  0.15066170  0.25832707    -0.01300
C722        C  0.28528373  0.14732342  0.25185994     0.07300
C723        C  0.30018854  0.16904040  0.24441989    -0.07300
C724        C  0.28895490  0.19385379  0.24321582     0.04700
C725        C  0.26233659  0.19737834  0.24999064    -0.14500
C726        C  0.24740605  0.17559138  0.25750112    -0.07800
C727        C  0.29803257  0.12133153  0.25184383     0.05700
C728        C  0.29210349  0.10369978  0.23126748    -0.08900
C729        C  0.30520568  0.07978541  0.22930138     0.00700
C730        C  0.32468924  0.07314432  0.24829562     0.00500
C731        C  0.33041137  0.09083496  0.26899634    -0.12500
C732        C  0.31722818  0.11467825  0.27095100     0.01000
C733        C  0.29906268  0.06309397  0.20687875     0.40300
C734        C  0.32341566  0.13189014  0.29294463     0.36900
C735        C  0.24250300  0.12880356  0.26588988     0.36700
C736        C  0.30521061  0.21540680  0.23502750     0.37400
N737        N  0.29417100  0.04981431  0.18881538    -0.43400
N738        N  0.32828038  0.14565394  0.31062346    -0.43800
N739        N  0.31816923  0.23266679  0.22827508    -0.41200
N740        N  0.22959285  0.11123725  0.27185639    -0.42600
H741        H  0.22687921  0.17802724  0.26238461     0.13500
H742        H  0.32064060  0.16650190  0.23920796     0.10000
H743        H  0.27759568  0.10893516  0.21632523     0.11100
H744        H  0.34510692  0.08595631  0.28386685     0.16900
C745        C  0.26008570  0.31235474  0.17094547    -0.01300
C746        C  0.24575380  0.30444422  0.14811340     0.07300
C747        C  0.23002540  0.28211771  0.14982596    -0.07300
C748        C  0.22787073  0.26813638  0.17386089     0.04700
C749        C  0.24126064  0.27672965  0.19696623    -0.14500
C750        C  0.25750113  0.29866060  0.19514164    -0.07800
C751        C  0.24683784  0.31881203  0.12212702     0.05700
C752        C  0.25436072  0.30536023  0.09886489    -0.08900
C753        C  0.25416297  0.31750025  0.07365965     0.00700
C754        C  0.24696541  0.34405445  0.07140364     0.00500
C755        C  0.23929574  0.35743539  0.09477902    -0.12500
C756        C  0.23874469  0.34498076  0.11985194     0.01000
C757        C  0.26065197  0.30182072  0.05053546     0.40300
C758        C  0.22850269  0.35901157  0.14269337     0.36900
C759        C  0.27822425  0.33384218  0.16987367     0.36700
C760        C  0.21153659  0.24524593  0.17436740     0.37400
N761        N  0.26558493  0.28913324  0.03201482    -0.43400
N762        N  0.22025911  0.37007952  0.16108558    -0.43800
N763        N  0.19851439  0.22684481  0.17466693    -0.41200
N764        N  0.29279213  0.35104939  0.16916025    -0.42600
H765        H  0.26852941  0.30483269  0.21260221     0.13500
H766        H  0.21920288  0.27570317  0.13232069     0.10000
H767        H  0.26003205  0.28506708  0.10037521     0.11100
H768        H  0.23319798  0.37760386  0.09345001     0.16900
C769        C  0.13667988  0.08212838  0.51536279    -0.01300
C770        C  0.13122800  0.05986258  0.49978381     0.07300
C771        C  0.15129921  0.04896328  0.48411139    -0.07300
C772        C  0.17649030  0.05977617  0.48388760     0.04700
C773        C  0.18180059  0.08235673  0.49920372    -0.14500
C774        C  0.16163272  0.09319989  0.51477977    -0.07800
C775        C  0.10465439  0.04797443  0.49949865     0.05700
C776        C  0.08310482  0.06347823  0.49240808    -0.08900
C777        C  0.05761564  0.05364784  0.49353446     0.00700
C778        C  0.05331929  0.02753370  0.50118223     0.00500
C779        C  0.07492671  0.01174952  0.50738141    -0.12500
C780        C  0.10039511  0.02178845  0.50691499     0.01000
C781        C  0.03614767  0.07110137  0.48793820     0.40300
C782        C  0.12169146  0.00511083  0.51507468     0.36900
C783        C  0.11718987  0.09368689  0.53266787     0.36700
C784        C  0.19620329  0.04746005  0.46743541     0.37400
N785        N  0.01894821  0.08515363  0.48366632    -0.43400
N786        N  0.13879571  0.99178104  0.52160769    -0.43800
N787        N  0.21195792  0.03746474  0.45429065    -0.41200
N788        N  0.10157088  0.10299427  0.54649372    -0.42600
H789        H  0.16538947  0.11034985  0.52684416     0.13500
H790        H  0.14721516  0.03199973  0.47187971     0.10000
H791        H  0.08619201  0.08355074  0.48646991     0.11100
H792        H  0.07185819  0.99156370  0.51286544     0.16900
C793        C  0.35479588  0.04980898  0.51188769    -0.01300
C794        C  0.37457164  0.05772731  0.49383727     0.07300
C795        C  0.36961668  0.07863935  0.47641591    -0.07300
C796        C  0.34568621  0.09195021  0.47708292     0.04700
C797        C  0.32584887  0.08403423  0.49517461    -0.14500
C798        C  0.33068516  0.06278528  0.51224472    -0.07800
C799        C  0.40063468  0.04471505  0.49311472     0.05700
C800        C  0.40209896  0.01783866  0.48814631    -0.08900
C801        C  0.42616907  0.00477630  0.48851834     0.00700
C802        C  0.44945363  0.01883113  0.49287934     0.00500
C803        C  0.44804930  0.04569343  0.49765690    -0.12500
C804        C  0.42395198  0.05864900  0.49800279     0.01000
C805        C  0.42632713  0.97682114  0.48595036     0.40300
C806        C  0.42357569  0.08600616  0.50456454     0.36900
C807        C  0.35908471  0.02900268  0.53089020     0.36700
C808        C  0.34202259  0.11335366  0.45866312     0.37400
N809        N  0.42631154  0.95437456  0.48422795    -0.43400
N810        N  0.42322212  0.10791197  0.50989794    -0.43800
N811        N  0.33917870  0.13057550  0.44396422    -0.41200
N812        N  0.36259525  0.01230830  0.54607494    -0.42600
H813        H  0.31575404  0.05657435  0.52634601     0.13500
H814        H  0.38459801  0.08464654  0.46227050     0.10000
H815        H  0.38429724  0.00694054  0.48452039     0.11100
H816        H  0.46588038  0.05651346  0.50141903     0.16900
C817        C  0.23072639  0.19474953  0.39881230    -0.01300
C818        C  0.24359134  0.18485018  0.37590720     0.07300
C819        C  0.25925291  0.16259842  0.37836274    -0.07300
C820        C  0.26179561  0.14979028  0.40302567     0.04700
C821        C  0.24842267  0.15923776  0.42590026    -0.14500
C822        C  0.23323686  0.18193702  0.42357156    -0.07800
C823        C  0.24199069  0.19795060  0.34938105     0.05700
C824        C  0.26467744  0.20933164  0.33872689    -0.08900
C825        C  0.26420696  0.22180142  0.31374645     0.00700
C826        C  0.24077757  0.22279242  0.29890527     0.00500
C827        C  0.21805094  0.21145500  0.30950018    -0.12500
C828        C  0.21852912  0.19887795  0.33447798     0.01000
C829        C  0.28781475  0.23395181  0.30397821     0.40300
C830        C  0.19496930  0.18648733  0.34408091     0.36900
C831        C  0.21539377  0.21832148  0.39741552     0.36700
C832        C  0.27914873  0.12765476  0.40449465     0.37400
N833        N  0.30671408  0.24379710  0.29621250    -0.43400
N834        N  0.17608856  0.17655408  0.35178783    -0.43800
N835        N  0.29312331  0.10997534  0.40575318    -0.41200
N836        N  0.20313816  0.23721720  0.39607035    -0.42600
H837        H  0.22311489  0.18953658  0.44103942     0.13500
H838        H  0.26961506  0.15527256  0.36090466     0.10000
H839        H  0.28274314  0.20865394  0.35010869     0.11100
H840        H  0.20004016  0.21212427  0.29803083     0.16900
C841        C  0.19788212  0.16958798  0.75308588    -0.01300
C842        C  0.21282979  0.14717988  0.74721244     0.07300
C843        C  0.23968290  0.14991516  0.74187583    -0.07300
C844        C  0.25168900  0.17442157  0.74249998     0.04700
C845        C  0.23655779  0.19683334  0.74779502    -0.14500
C846        C  0.20980144  0.19405250  0.75332048    -0.07800
C847        C  0.20071811  0.12084376  0.74671995     0.05700
C848        C  0.17989836  0.11610517  0.72905157    -0.08900
C849        C  0.16697383  0.09209912  0.72886525     0.00700
C850        C  0.17508768  0.07203120  0.74646983     0.00500
C851        C  0.19650381  0.07652208  0.76350393    -0.12500
C852        C  0.20920947  0.10066041  0.76388257     0.01000
C853        C  0.14580872  0.08858913  0.71002979     0.40300
C854        C  0.23024560  0.10449664  0.78278891     0.36900
C855        C  0.17042573  0.16796530  0.75970321     0.36700
C856        C  0.27967874  0.17583983  0.73901270     0.37400
N857        N  0.12886531  0.08581200  0.69490813    -0.43400
N858        N  0.24712629  0.10750002  0.79793292    -0.43800
N859        N  0.30215132  0.17675645  0.73635472    -0.41200
N860        N  0.14841227  0.16672732  0.76498303    -0.42600
H861        H  0.19816924  0.21115242  0.75787997     0.13500
H862        H  0.25134412  0.13280113  0.73748852     0.10000
H863        H  0.17360053  0.13135807  0.71543905     0.11100
H864        H  0.20296178  0.06133687  0.77710891     0.16900
C865        C  0.23807297  0.31361984  0.82641332    -0.01300
C866        C  0.25070019  0.30442051  0.84969119     0.07300
C867        C  0.26470554  0.28099024  0.84872561    -0.07300
C868        C  0.26681599  0.26697707  0.82473713     0.04700
C869        C  0.25451409  0.27633960  0.80126904    -0.14500
C870        C  0.23978321  0.29938290  0.80254950    -0.07800
C871        C  0.24960259  0.31889338  0.87533119     0.05700
C872        C  0.23386881  0.30933246  0.89612854    -0.08900
C873        C  0.23287199  0.32192368  0.92102733     0.00700
C874        C  0.24800135  0.34460958  0.92542610     0.00500
C875        C  0.26356753  0.35423010  0.90430617    -0.12500
C876        C  0.26456107  0.34151339  0.87946624     0.01000
C877        C  0.21591567  0.31114799  0.94139688     0.40300
C878        C  0.28159228  0.35151312  0.85871768     0.36900
C879        C  0.22320608  0.33751180  0.82661817     0.36700
C880        C  0.28214757  0.24338130  0.82457750     0.37400
N881        N  0.20228971  0.30239697  0.95762926    -0.43400
N882        N  0.29524025  0.35936392  0.84202002    -0.43800
N883        N  0.29436220  0.22441849  0.82446981    -0.41200
N884        N  0.21137237  0.35671278  0.82675339    -0.42600
H885        H  0.22958891  0.30626474  0.78484732     0.13500
H886        H  0.27434148  0.27387441  0.86668834     0.10000
H887        H  0.22234360  0.29190928  0.89285706     0.11100
H888        H  0.27536506  0.37150585  0.90729844     0.16900
C889        C  0.24907826  0.19727507  0.59861340    -0.01300
C890        C  0.26026223  0.18565132  0.62161120     0.07300
C891        C  0.27114028  0.16066075  0.61944422    -0.07300
C892        C  0.27113544  0.14726996  0.59496025     0.04700
C893        C  0.25948418  0.15868347  0.57203400    -0.14500
C894        C  0.24874849  0.18376848  0.57420519    -0.07800
C895        C  0.26034813  0.19893139  0.64818601     0.05700
C896        C  0.23643112  0.20665854  0.65960753    -0.08900
C897        C  0.23557132  0.21879904  0.68473674     0.00700
C898        C  0.25891353  0.22303271  0.69910583     0.00500
C899        C  0.28286800  0.21584081  0.68754765    -0.12500
C900        C  0.28376661  0.20357161  0.66247355     0.01000
C901        C  0.21063469  0.22746955  0.69501418     0.40300
C902        C  0.30895666  0.19606704  0.65184621     0.36900
C903        C  0.23819025  0.22320204  0.59935715     0.36700
C904        C  0.28402235  0.12228629  0.59390013     0.37400
N905        N  0.19067552  0.23449469  0.70326679    -0.43400
N906        N  0.32914014  0.18982914  0.64348908    -0.43800
N907        N  0.29455880  0.10236360  0.59313560    -0.41200
N908        N  0.22938348  0.24394421  0.59986745    -0.42600
H909        H  0.23984246  0.19284847  0.55679729     0.13500
H910        H  0.27966957  0.15153094  0.63702585     0.10000
H911        H  0.21834091  0.20310120  0.64887360     0.11100
H912        H  0.30089111  0.21951228  0.69836925     0.16900
C913        C  0.41277677  0.55297188  0.51966672    -0.01300
C914        C  0.39264911  0.54401159  0.50271034     0.07300
C915        C  0.39752562  0.52299816  0.48545144    -0.07300
C916        C  0.42220490  0.51113370  0.48465088     0.04700
C917        C  0.44251311  0.52038729  0.50134540    -0.14500
C918        C  0.43748005  0.54134877  0.51865814    -0.07800
C919        C  0.36689710  0.55730572  0.50173023     0.05700
C920        C  0.36590241  0.58310077  0.49269005    -0.08900
C921        C  0.34226214  0.59679000  0.49189724     0.00700
C922        C  0.31876475  0.58446010  0.50004911     0.00500
C923        C  0.31985806  0.55846599  0.50890432    -0.12500
C924        C  0.34363319  0.54490255  0.50984842     0.01000
C925        C  0.34305503  0.62353321  0.48301667     0.40300
C926        C  0.34383667  0.51859737  0.52003490     0.36900
C927        C  0.40842385  0.57389766  0.53847541     0.36700
C928        C  0.42609461  0.48935007  0.46679196     0.37400
N929        N  0.34380929  0.64498227  0.47596858    -0.43400
N930        N  0.34402683  0.49753781  0.52826790    -0.43800
N931        N  0.42918951  0.47188669  0.45248014    -0.41200
N932        N  0.40487442  0.59062950  0.55358096    -0.42600
H933        H  0.45300287  0.54884373  0.53127931     0.13500
H934        H  0.38209960  0.51609936  0.47233358     0.10000
H935        H  0.38381159  0.59264698  0.48638327     0.11100
H936        H  0.30213301  0.54871329  0.51536682     0.16900
C937        C  0.55883883  0.51940010  0.35241756    -0.01300
C938        C  0.56932240  0.50895642  0.37628634     0.07300
C939        C  0.59476943  0.49875427  0.37596749    -0.07300
C940        C  0.60974764  0.49865215  0.35232200     0.04700
C941        C  0.59915768  0.50885482  0.32818244    -0.14500
C942        C  0.57372267  0.51931836  0.32875331    -0.07800
C943        C  0.55361840  0.50729969  0.40143604     0.05700
C944        C  0.54602875  0.48270849  0.41093207    -0.08900
C945        C  0.53100905  0.48018798  0.43437089     0.00700
C946        C  0.52351719  0.50256276  0.44888058     0.00500
C947        C  0.53082587  0.52717090  0.43920863    -0.12500
C948        C  0.54597305  0.52968604  0.41585863     0.01000
C949        C  0.52313329  0.45451677  0.44287743     0.40300
C950        C  0.55417079  0.55533816  0.40758899     0.36900
C951        C  0.53247725  0.52945003  0.35150058     0.36700
C952        C  0.63553494  0.48721663  0.35346407     0.37400
N953        N  0.51678951  0.43389566  0.44955395    -0.43400
N954        N  0.56075040  0.57591190  0.40099377    -0.43800
N955        N  0.65616701  0.47798049  0.35448253    -0.41200
N956        N  0.51135187  0.53752432  0.35084743    -0.42600
H957        H  0.56519989  0.52716614  0.31053131     0.13500
H958        H  0.60285465  0.49058372  0.39426607     0.10000
H959        H  0.55170254  0.46544309  0.39984812     0.11100
H960        H  0.52533920  0.54441287  0.45042854     0.16900
C961        C  0.27519877  0.34727180  0.74647658    -0.01300
C962        C  0.30091920  0.35110948  0.75586159     0.07300
C963        C  0.31573353  0.32963452  0.76432342    -0.07300
C964        C  0.30527433  0.30449736  0.76342521     0.04700
C965        C  0.27966111  0.30064833  0.75383181    -0.14500
C966        C  0.26488693  0.32208169  0.74522137    -0.07800
C967        C  0.31308197  0.37725538  0.75597506     0.05700
C968        C  0.30467794  0.39577491  0.77475128    -0.08900
C969        C  0.31556116  0.42078759  0.77513629     0.00700
C970        C  0.33516500  0.42756699  0.75632451     0.00500
C971        C  0.34381491  0.40877407  0.73786964    -0.12500
C972        C  0.33287375  0.38384177  0.73747699     0.01000
C973        C  0.30694801  0.43867297  0.79566736     0.40300
C974        C  0.34170050  0.36553052  0.71743430     0.36900
C975        C  0.25931491  0.36882713  0.73752366     0.36700
C976        C  0.32131420  0.28284139  0.77177972     0.37400
N977        N  0.30006893  0.45292016  0.81221956    -0.43400
N978        N  0.34867378  0.35082180  0.70136259    -0.43800
N979        N  0.33416279  0.26542473  0.77834773    -0.41200
N980        N  0.24661059  0.38615073  0.73041185    -0.42600
H981        H  0.24522073  0.31909397  0.73768982     0.13500
H982        H  0.33556328  0.33254395  0.77142593     0.10000
H983        H  0.28966218  0.39059249  0.78920311     0.11100
H984        H  0.35884714  0.41371451  0.72334937     0.16900
C985        C  0.27548790  0.65656052  0.76431438    -0.01300
C986        C  0.29974386  0.64992890  0.75265924     0.07300
C987        C  0.31448935  0.66925562  0.73974180    -0.07300
C988        C  0.30553683  0.69495336  0.73847130     0.04700
C989        C  0.28096305  0.70147834  0.74946625    -0.14500
C990        C  0.26621729  0.68216407  0.76246943    -0.07800
C991        C  0.31058680  0.62317212  0.75430587     0.05700
C992        C  0.29834080  0.60298657  0.74017682    -0.08900
C993        C  0.30897237  0.57781039  0.73995470     0.00700
C994        C  0.33231525  0.57251438  0.75425680     0.00500
C995        C  0.34428645  0.59280771  0.76861516    -0.12500
C996        C  0.33365325  0.61788751  0.76877935     0.01000
C997        C  0.29606035  0.55825501  0.72396615     0.40300
C998        C  0.34658819  0.63786158  0.78421453     0.36900
C999        C  0.26043679  0.63774918  0.77931720     0.36700
C1000       C  0.32268746  0.71448823  0.72739992     0.37400
N1001       N  0.28567031  0.54269838  0.71102216    -0.43400
N1002       N  0.35691491  0.65389271  0.79657739    -0.43800
N1003       N  0.33683659  0.72998141  0.71884679    -0.41200
N1004       N  0.24846950  0.62273788  0.79154056    -0.42600
H1005       H  0.24758981  0.68723133  0.77151775     0.13500
H1006       H  0.33336356  0.66431718  0.73116298     0.10000
H1007       H  0.28073402  0.60708925  0.72878840     0.11100
H1008       H  0.36207477  0.58910845  0.77983927     0.16900
C1009       C  0.44273124  0.48933388  0.65133598    -0.01300
C1010       C  0.43100003  0.50096595  0.62869237     0.07300
C1011       C  0.40649096  0.51292437  0.63148795    -0.07300
C1012       C  0.39368285  0.51360202  0.65643561     0.04700
C1013       C  0.40544536  0.50198871  0.67926134    -0.14500
C1014       C  0.43004128  0.49005897  0.67630738    -0.07800
C1015       C  0.44399857  0.50085255  0.60192941     0.05700
C1016       C  0.43414387  0.48475936  0.58156495    -0.08900
C1017       C  0.44616828  0.48378610  0.55622337     0.00700
C1018       C  0.46830248  0.49939902  0.55085093     0.00500
C1019       C  0.47812906  0.51545026  0.57128903    -0.12500
C1020       C  0.46612392  0.51640254  0.59658214     0.01000
C1021       C  0.43594519  0.46601993  0.53643457     0.40300
C1022       C  0.47648917  0.53390881  0.61655351     0.36900
C1023       C  0.46749491  0.47596886  0.64924875     0.36700
C1024       C  0.36889961  0.52701918  0.65805617     0.37400
N1025       N  0.42764907  0.45165083  0.52073414    -0.43400
N1026       N  0.48479864  0.54799994  0.63251313    -0.43800
N1027       N  0.34907358  0.53784044  0.65933500    -0.41200
N1028       N  0.48731126  0.46519568  0.64755514    -0.42600
H1029       H  0.43925359  0.48086999  0.69348097     0.13500
H1030       H  0.39746068  0.52198424  0.61412968     0.10000
H1031       H  0.41722411  0.47265977  0.58563216     0.11100
H1032       H  0.49503207  0.52759670  0.56728917     0.16900
C1033       C  0.40498674  0.47110686  0.01708845    -0.01300
C1034       C  0.39991899  0.45025140  0.99945540     0.07300
C1035       C  0.42045968  0.44003459  0.98395578    -0.07300
C1036       C  0.44570342  0.45049170  0.98565598     0.04700
C1037       C  0.45042962  0.47213202  0.00240765    -0.14500
C1038       C  0.43006044  0.48185427  0.01839433    -0.07800
C1039       C  0.37345722  0.43845059  0.99773051     0.05700
C1040       C  0.35230148  0.45390266  0.98946793    -0.08900
C1041       C  0.32672480  0.44411492  0.98949018     0.00700
C1042       C  0.32202264  0.41809530  0.99753926     0.00500
C1043       C  0.34342157  0.40256656  0.00525808    -0.12500
C1044       C  0.36888448  0.41249553  0.00550608     0.01000
C1045       C  0.30589214  0.46144421  0.98150922     0.40300
C1046       C  0.38985995  0.39596028  0.01480307     0.36900
C1047       C  0.38493261  0.48124787  0.03463828     0.36700
C1048       C  0.46662462  0.43792713  0.97110204     0.37400
N1049       N  0.28930674  0.47550721  0.97519224    -0.43400
N1050       N  0.40669628  0.38274070  0.02224225    -0.43800
N1051       N  0.48338261  0.42766471  0.95958981    -0.41200
N1052       N  0.36878068  0.48920757  0.04871162    -0.42600
H1053       H  0.43373778  0.49810232  0.03174818     0.13500
H1054       H  0.41680787  0.42364596  0.97078333     0.10000
H1055       H  0.35578566  0.47388027  0.98339937     0.11100
H1056       H  0.34028407  0.38260220  0.01152822     0.16900
C1057       C  0.47197748  0.48631208  0.90766152    -0.01300
C1058       C  0.44770977  0.49903468  0.90437209     0.07300
C1059       C  0.43652098  0.51199435  0.92637094    -0.07300
C1060       C  0.44918270  0.51252811  0.95134406     0.04700
C1061       C  0.47322409  0.49935869  0.95475965    -0.14500
C1062       C  0.48457233  0.48677729  0.93261398    -0.07800
C1063       C  0.43385074  0.49935103  0.87809994     0.05700
C1064       C  0.40969135  0.48664869  0.87575313    -0.08900
C1065       C  0.39611722  0.48631727  0.85127040     0.00700
C1066       C  0.40679692  0.49896617  0.82844456     0.00500
C1067       C  0.43092257  0.51180177  0.83100533    -0.12500
C1068       C  0.44430467  0.51228205  0.85552626     0.01000
C1069       C  0.37167568  0.47229092  0.85017805     0.40300
C1070       C  0.46841665  0.52677380  0.85723354     0.36900
C1071       C  0.48408199  0.47218855  0.88589352     0.36700
C1072       C  0.43768477  0.52764737  0.97272650     0.37400
N1073       N  0.35211915  0.46098819  0.84946376    -0.43400
N1074       N  0.48775429  0.53837152  0.85863411    -0.43800
N1075       N  0.42839436  0.53991949  0.98972316    -0.41200
N1076       N  0.49386180  0.46094416  0.86843648    -0.42600
H1077       H  0.50311997  0.47678690  0.93502361     0.13500
H1078       H  0.41806587  0.52212726  0.92385674     0.10000
H1079       H  0.40154595  0.47673093  0.89308774     0.11100
H1080       H  0.43923918  0.52188343  0.81386984     0.16900
C1081       C  0.54857032  0.52158257  0.09317653    -0.01300
C1082       C  0.55616754  0.49832502  0.10613058     0.07300
C1083       C  0.54926211  0.47441322  0.09448458    -0.07300
C1084       C  0.53564636  0.47342430  0.07001922     0.04700
C1085       C  0.52857786  0.49670616  0.05675800    -0.14500
C1086       C  0.53488932  0.52059124  0.06881244    -0.07800
C1087       C  0.57086996  0.49848640  0.13203499     0.05700
C1088       C  0.55886520  0.48847667  0.15519555    -0.08900
C1089       C  0.57171756  0.48868918  0.18012291     0.00700
C1090       C  0.59744006  0.49878311  0.18219428     0.00500
C1091       C  0.60954935  0.50834835  0.15877558    -0.12500
C1092       C  0.59656086  0.50835023  0.13395609     0.01000
C1093       C  0.55790969  0.47833087  0.20306051     0.40300
C1094       C  0.61010649  0.51841177  0.11069002     0.36900
C1095       C  0.55413196  0.54670968  0.10475195     0.36700
C1096       C  0.52975312  0.44830976  0.05858012     0.37400
N1097       N  0.54670494  0.47004980  0.22137597    -0.43400
N1098       N  0.62089810  0.52665043  0.09209433    -0.43800
N1099       N  0.52495678  0.42821209  0.04936856    -0.34800
N1100       N  0.55867822  0.56685822  0.11397396    -0.42600
H1101       H  0.52900138  0.53858027  0.05916580     0.13500
H1102       H  0.55484595  0.45645241  0.10439004     0.10000
H1103       H  0.53916830  0.48075855  0.15383903     0.11100
H1104       H  0.62921730  0.51615891  0.15984121     0.16900
C1105       C  0.07802157  0.56024492  0.48209173    -0.01300
C1106       C  0.09981327  0.54871523  0.49474529     0.07300
C1107       C  0.09682009  0.52486814  0.50810154    -0.07300
C1108       C  0.07240398  0.51267839  0.50941177     0.04700
C1109       C  0.05055518  0.52435518  0.49704077    -0.14500
C1110       C  0.05360732  0.54803343  0.48337742    -0.07800
C1111       C  0.12558711  0.56182279  0.49567168     0.05700
C1112       C  0.12824364  0.58433649  0.51125796    -0.08900
C1113       C  0.15249252  0.59671710  0.51388189     0.00700
C1114       C  0.17474130  0.58655252  0.50053459     0.00500
C1115       C  0.17193426  0.56384373  0.48502146    -0.12500
C1116       C  0.14764421  0.55151139  0.48247676     0.01000
C1117       C  0.15388943  0.61931181  0.53101450     0.40300
C1118       C  0.14562577  0.52867166  0.46573225     0.36900
C1119       C  0.08029019  0.58442608  0.46751843     0.36700
C1120       C  0.07021223  0.48824230  0.52354315     0.37400
N1121       N  0.15480221  0.63734797  0.54487562    -0.43400
N1122       N  0.14392651  0.51041247  0.45226704    -0.43800
N1123       N  0.06842919  0.46866958  0.53489566    -0.41200
N1124       N  0.08199897  0.60377969  0.45575984    -0.42600
H1125       H  0.03680429  0.55710795  0.47394745     0.13500
H1126       H  0.11353482  0.51601984  0.51793124     0.10000
H1127       H  0.11131704  0.59203135  0.52175752     0.11100
H1128       H  0.18868348  0.55585627  0.47448223     0.16900
C1129       C  0.15044650  0.45984656  0.00866723    -0.01300
C1130       C  0.12970143  0.45038597  0.99288195     0.07300
C1131       C  0.13378481  0.42877061  0.97630756    -0.07300
C1132       C  0.15795584  0.41594656  0.97592759     0.04700
C1133       C  0.17849103  0.42451677  0.99282894    -0.14500
C1134       C  0.17458630  0.44686916  0.00861172    -0.07800
C1135       C  0.10317642  0.46194527  0.99418847     0.05700
C1136       C  0.09728149  0.48375827  0.97842496    -0.08900
C1137       C  0.07206696  0.49450795  0.97856303     0.00700
C1138       C  0.05230303  0.48336648  0.99481432     0.00500
C1139       C  0.05834947  0.46147844  0.01053425    -0.12500
C1140       C  0.08354040  0.45080823  0.01039301     0.01000
C1141       C  0.06707976  0.51712975  0.96213924     0.40300
C1142       C  0.08888374  0.42839453  0.02699467     0.36900
C1143       C  0.14722734  0.48256758  0.02535508     0.36700
C1144       C  0.16115506  0.39443153  0.95756133     0.37400
N1145       N  0.06309012  0.53517123  0.94883718    -0.43400
N1146       N  0.09325625  0.41042629  0.04027020    -0.43800
N1147       N  0.16376774  0.37729664  0.94273024    -0.41200
N1148       N  0.14470037  0.50087357  0.03861564    -0.42600
H1149       H  0.19019453  0.45390946  0.02138226     0.13500
H1150       H  0.11795416  0.42180032  0.96382555     0.10000
H1151       H  0.11239336  0.49228682  0.96589122     0.11100
H1152       H  0.04327348  0.45263075  0.02286954     0.16900
C1153       C  0.16540311  0.38513766  0.26252853    -0.01300
C1154       C  0.18860099  0.38006884  0.24811382     0.07300
C1155       C  0.20073124  0.40048461  0.23413155    -0.07300
C1156       C  0.18986224  0.42560305  0.23402208     0.04700
C1157       C  0.16614968  0.43055345  0.24788210    -0.14500
C1158       C  0.15426201  0.41005394  0.26205882    -0.07800
C1159       C  0.19994997  0.35338644  0.24694544     0.05700
C1160       C  0.18574284  0.33359435  0.23414176    -0.08900
C1161       C  0.19494738  0.30790300  0.23380569     0.00700
C1162       C  0.21906501  0.30173844  0.24597320     0.00500
C1163       C  0.23332735  0.32151046  0.25873451    -0.12500
C1164       C  0.22395529  0.34717055  0.25936480     0.01000
C1165       C  0.17867473  0.28797988  0.22214033     0.40300
C1166       C  0.23866186  0.36652532  0.27390121     0.36900
C1167       C  0.15319963  0.36520400  0.27868589     0.36700
C1168       C  0.20310424  0.44563080  0.21888867     0.37400
N1169       N  0.16542966  0.27202589  0.21303707    -0.43400
N1170       N  0.25037473  0.38199681  0.28570810    -0.43800
N1171       N  0.21373564  0.46169962  0.20679177    -0.41200
N1172       N  0.14366442  0.34918489  0.29176894    -0.42600
H1173       H  0.13635008  0.41356398  0.27317514     0.13500
H1174       H  0.21858888  0.39668495  0.22301516     0.10000
H1175       H  0.16710876  0.33817547  0.22487326     0.11100
H1176       H  0.25171695  0.31679402  0.26843394     0.16900
C1177       C  0.22322629  0.65830926  0.23226764    -0.01300
C1178       C  0.20103532  0.65202129  0.24785830     0.07300
C1179       C  0.18960986  0.67135035  0.26395401    -0.07300
C1180       C  0.19972353  0.69664351  0.26450545     0.04700
C1181       C  0.22254778  0.70268047  0.24975973    -0.14500
C1182       C  0.23387435  0.68339167  0.23350378    -0.07800
C1183       C  0.18898518  0.62566065  0.24724416     0.05700
C1184       C  0.20349339  0.60413987  0.25615909    -0.08900
C1185       C  0.19244531  0.57916079  0.25685444     0.00700
C1186       C  0.16632297  0.57533207  0.24826334     0.00500
C1187       C  0.15190716  0.59698930  0.23934184    -0.12500
C1188       C  0.16293379  0.62191059  0.23879569     0.01000
C1189       C  0.20813956  0.55814172  0.26737740     0.40300
C1190       C  0.14722079  0.64331288  0.22911990     0.36900
C1191       C  0.23470716  0.63975468  0.21397392     0.36700
C1192       C  0.18524124  0.71632579  0.27886862     0.37400
N1193       N  0.22070502  0.54134659  0.27595656    -0.43400
N1194       N  0.13466217  0.66053476  0.22149050    -0.43800
N1195       N  0.17326320  0.73193868  0.29024735    -0.41200
N1196       N  0.24386224  0.62501656  0.19912687    -0.42600
H1197       H  0.25100772  0.68804065  0.22156664     0.13500
H1198       H  0.17230452  0.66678273  0.27566258     0.10000
H1199       H  0.22339877  0.60697859  0.26307949     0.11100
H1200       H  0.13189840  0.59448889  0.23261824     0.16900
C1201       C  0.06550608  0.51638450  0.07218911    -0.01300
C1202       C  0.05593954  0.50294535  0.09491366     0.07300
C1203       C  0.03227408  0.48927447  0.09286592    -0.07300
C1204       C  0.01823097  0.48868586  0.06872312     0.04700
C1205       C  0.02778183  0.50210909  0.04594340    -0.14500
C1206       C  0.05140464  0.51591500  0.04805858    -0.07800
C1207       C  0.06949119  0.50370724  0.12139101     0.05700
C1208       C  0.05655008  0.51508739  0.14329456    -0.08900
C1209       C  0.06793822  0.51553530  0.16889472     0.00700
C1210       C  0.09296045  0.50440468  0.17302393     0.00500
C1211       C  0.10599117  0.49322939  0.15093730    -0.12500
C1212       C  0.09440169  0.49253057  0.12540679     0.01000
C1213       C  0.05356190  0.52795962  0.19031342     0.40300
C1214       C  0.10789933  0.47916698  0.10398190     0.36900
C1215       C  0.08926315  0.53148092  0.07332684     0.36700
C1216       C  0.99427699  0.47384594  0.06779526     0.37400
N1217       N  0.04196678  0.53794987  0.20741584    -0.43400
N1218       N  0.11867793  0.46833856  0.08686644    -0.43800
N1219       N  0.97501271  0.46205536  0.06716425    -0.41200
N1220       N  0.10833790  0.54355799  0.07410580    -0.42600
H1221       H  0.05871061  0.52662236  0.03084016     0.13500
H1222       H  0.02477169  0.47895742  0.11025497     0.10000
H1223       H  0.03737418  0.52367564  0.14033953     0.11100
H1224       H  0.12507009  0.48439972  0.15372485     0.16900
C1225       C  0.03318125  0.52369675  0.40576852    -0.01300
C1226       C  0.05167904  0.50439327  0.39891245     0.07300
C1227       C  0.05714073  0.48443662  0.41733132    -0.07300
C1228       C  0.04419976  0.48331529  0.44212997     0.04700
C1229       C  0.02552549  0.50242749  0.44880826    -0.14500
C1230       C  0.02007736  0.52242370  0.43047552    -0.07800
C1231       C  0.06529646  0.50442377  0.37250562     0.05700
C1232       C  0.09213143  0.50985459  0.37150627    -0.08900
C1233       C  0.10574107  0.50987639  0.34700897     0.00700
C1234       C  0.09242458  0.50408106  0.32274800     0.00500
C1235       C  0.06547858  0.49854837  0.32398410    -0.12500
C1236       C  0.05194972  0.49863891  0.34850078     0.01000
C1237       C  0.13325211  0.51615710  0.34760416     0.40300
C1238       C  0.02446769  0.49216266  0.34869031     0.36900
C1239       C  0.02792822  0.54534925  0.38810016     0.36700
C1240       C  0.05001126  0.46220165  0.46029834     0.37400
N1241       N  0.15528870  0.52126103  0.34822022    -0.43400
N1242       N  0.00244112  0.48699774  0.34900083    -0.43800
N1243       N  0.05451628  0.44525827  0.47489621    -0.41200
N1244       N  0.02380374  0.56277014  0.37398778    -0.42600
H1245       H  0.00591712  0.53730420  0.43572190     0.13500
H1246       H  0.07134341  0.46956931  0.41217422     0.10000
H1247       H  0.10244713  0.51426802  0.38997817     0.11100
H1248       H  0.05487923  0.49396152  0.30574763     0.16900
C1249       C  0.89926696  0.50159495  0.86994759    -0.01300
C1250       C  0.92671893  0.50340653  0.87120802     0.07300
C1251       C  0.94126462  0.50394877  0.84739546    -0.07300
C1252       C  0.92891676  0.50298817  0.82234740     0.04700
C1253       C  0.90129146  0.50137800  0.82083480    -0.14500
C1254       C  0.88679141  0.50056145  0.84489409    -0.07800
C1255       C  0.94093934  0.50383930  0.89709763     0.05700
C1256       C  0.95286164  0.48090165  0.90607014    -0.08900
C1257       C  0.96734701  0.48051061  0.92989117     0.00700
C1258       C  0.97015295  0.50350863  0.94522365     0.00500
C1259       C  0.95860393  0.52662482  0.93580051    -0.12500
C1260       C  0.94385249  0.52687728  0.91209805     0.01000
C1261       C  0.97859688  0.45608968  0.93842354     0.40300
C1262       C  0.93211684  0.55099001  0.90336810     0.36900
C1263       C  0.88363384  0.50049063  0.89410013     0.36700
C1264       C  0.94528993  0.50318807  0.79870719     0.37400
N1265       N  0.98773683  0.43655572  0.94519300    -0.43400
N1266       N  0.92267204  0.57031134  0.89639145    -0.43800
N1267       N  0.95851463  0.50332033  0.77982871    -0.41200
N1268       N  0.87116087  0.49958559  0.91349079    -0.42600
H1269       H  0.86562999  0.49932995  0.84418370     0.13500
H1270       H  0.96243275  0.50506172  0.84843261     0.10000
H1271       H  0.95076801  0.46321649  0.89439985     0.11100
H1272       H  0.96107467  0.54451646  0.94701796     0.16900
C1273       C  0.94218629  0.49027561  0.65173662    -0.01300
C1274       C  0.93262575  0.50208009  0.62810633     0.07300
C1275       C  0.90805186  0.51424095  0.62871726    -0.07300
C1276       C  0.89310756  0.51504922  0.65231842     0.04700
C1277       C  0.90286344  0.50370285  0.67624387    -0.14500
C1278       C  0.92745062  0.49136386  0.67548307    -0.07800
C1279       C  0.94758726  0.50170695  0.60238623     0.05700
C1280       C  0.95421127  0.47775520  0.59060685    -0.08900
C1281       C  0.96753719  0.47674095  0.56600384     0.00700
C1282       C  0.97335726  0.49996886  0.55211184     0.00500
C1283       C  0.96740690  0.52389656  0.56421753    -0.12500
C1284       C  0.95486831  0.52495052  0.58920770     0.01000
C1285       C  0.97629337  0.45179760  0.55620877     0.40300
C1286       C  0.95047232  0.55009483  0.60131307     0.36900
C1287       C  0.96713113  0.47708121  0.65219945     0.36700
C1288       C  0.86778370  0.52743785  0.65105849     0.37400
N1289       N  0.98356775  0.43178199  0.54862498    -0.43400
N1290       N  0.94714394  0.57026428  0.61104816    -0.43800
N1291       N  0.84744514  0.53727609  0.64988235    -0.41200
N1292       N  0.98701010  0.46629702  0.65247371    -0.42600
H1293       H  0.93520470  0.48232588  0.69348069     0.13500
H1294       H  0.90037020  0.52293510  0.61049440     0.10000
H1295       H  0.94909149  0.45978838  0.60075229     0.11100
H1296       H  0.97258246  0.54184191  0.55404500     0.16900
C1297       C  0.57745133  0.07210601  0.98571738    -0.01300
C1298       C  0.59824008  0.05780429  0.99719007     0.07300
C1299       C  0.59334478  0.03289678  0.00760053    -0.07300
C1300       C  0.56817711  0.02223967  0.00682038     0.04700
C1301       C  0.54750837  0.03646689  0.99513862    -0.14500
C1302       C  0.55237140  0.06125127  0.98453991    -0.07800
C1303       C  0.62505737  0.06875265  0.99907301     0.05700
C1304       C  0.62920130  0.09093261  0.01486086    -0.08900
C1305       C  0.65405776  0.10216572  0.01691634     0.00700
C1306       C  0.67544232  0.09117822  0.00280129     0.00500
C1307       C  0.67131501  0.06858823  0.98749281    -0.12500
C1308       C  0.64644311  0.05731543  0.98559914     0.01000
C1309       C  0.65702746  0.12441686  0.03433709     0.40300
C1310       C  0.64325500  0.03427615  0.96935820     0.36900
C1311       C  0.58137020  0.09796337  0.97513053     0.36700
C1312       C  0.56397414  0.99661176  0.01791019     0.37400
N1313       N  0.65930102  0.14215926  0.04843559    -0.43400
N1314       N  0.64071480  0.01571894  0.95648356    -0.43800
N1315       N  0.56049216  0.97608510  0.02677547    -0.41200
N1316       N  0.58448113  0.11877942  0.96686255    -0.42600
H1317       H  0.53642875  0.07227054  0.97574118     0.13500
H1318       H  0.60917482  0.02192048  0.01665795     0.10000
H1319       H  0.61290701  0.09941778  0.02575437     0.11100
H1320       H  0.68749416  0.05986492  0.97663856     0.16900
C1321       C  0.84874544  0.05083196  0.01933500    -0.01300
C1322       C  0.87034748  0.06132052  0.00547643     0.07300
C1323       C  0.86718538  0.08414430  0.99045694    -0.07300
C1324       C  0.84301589  0.09682302  0.98924229     0.04700
C1325       C  0.82129108  0.08664009  0.00341687    -0.14500
C1326       C  0.82443965  0.06348833  0.01817192    -0.07800
C1327       C  0.89661496  0.04911494  0.00614023     0.05700
C1328       C  0.90114759  0.02633007  0.99136084    -0.08900
C1329       C  0.92643094  0.01595452  0.98914926     0.00700
C1330       C  0.94762337  0.02851623  0.00185675     0.00500
C1331       C  0.94296306  0.05126033  0.01667581    -0.12500
C1332       C  0.91769136  0.06138350  0.01921416     0.01000
C1333       C  0.93020073  0.99249615  0.97369329     0.40300
C1334       C  0.91375229  0.08428242  0.03549840     0.36900
C1335       C  0.85125703  0.02757968  0.03540940     0.36700
C1336       C  0.84107828  0.11976477  0.97259390     0.37400
N1337       N  0.93332846  0.97375616  0.96122954    -0.43400
N1338       N  0.91053601  0.10254496  0.04866963    -0.43800
N1339       N  0.83965233  0.13807973  0.95913738    -0.41200
N1340       N  0.85322215  0.00897292  0.04835628    -0.42600
H1341       H  0.80800836  0.05548687  0.02921094     0.13500
H1342       H  0.88375557  0.09203532  0.97952490     0.10000
H1343       H  0.88499898  0.01698034  0.98109767     0.11100
H1344       H  0.95915612  0.06125296  0.02614190     0.16900
C1345       C  0.63517239  0.43398791  0.47751520    -0.01300
C1346       C  0.62856169  0.45423124  0.49530407     0.07300
C1347       C  0.64709210  0.46292390  0.51400604    -0.07300
C1348       C  0.67172131  0.45100827  0.51585188     0.04700
C1349       C  0.67809884  0.43018714  0.49848797    -0.14500
C1350       C  0.65977881  0.42225864  0.47914563    -0.07800
C1351       C  0.60154899  0.46459203  0.49642598     0.05700
C1352       C  0.58166541  0.44822387  0.50590643    -0.08900
C1353       C  0.55568205  0.45662695  0.50670561     0.00700
C1354       C  0.54925139  0.48209046  0.49830157     0.00500
C1355       C  0.56934456  0.49868320  0.48936871    -0.12500
C1356       C  0.59529282  0.48998247  0.48794131     0.01000
C1357       C  0.53589832  0.43843213  0.51540193     0.40300
C1358       C  0.61496024  0.50697351  0.47674713     0.36900
C1359       C  0.61673623  0.42457180  0.45783636     0.36700
C1360       C  0.68917476  0.45923931  0.53696893     0.37400
N1361       N  0.52002979  0.42387123  0.52238116    -0.43400
N1362       N  0.63069187  0.52049844  0.46755210    -0.43800
N1363       N  0.70306494  0.46568440  0.55404695    -0.41200
N1364       N  0.60184599  0.41701156  0.44220036    -0.42600
H1365       H  0.66450742  0.40648846  0.46551202     0.13500
H1366       H  0.64185717  0.47827398  0.52795152     0.10000
H1367       H  0.58647546  0.42862784  0.51234656     0.11100
H1368       H  0.56472092  0.51838808  0.48324338     0.16900
C1369       C  0.85334890  0.44883527  0.48106238    -0.01300
C1370       C  0.87172120  0.44253970  0.50115905     0.07300
C1371       C  0.86486106  0.42478203  0.52134997    -0.07300
C1372       C  0.84006523  0.41329137  0.52179680     0.04700
C1373       C  0.82151400  0.41981703  0.50187001    -0.14500
C1374       C  0.82838716  0.43766358  0.48171146    -0.07800
C1375       C  0.89810731  0.45447209  0.50167018     0.05700
C1376       C  0.90039967  0.48136616  0.50592726    -0.08900
C1377       C  0.92498656  0.49333057  0.50647711     0.00700
C1378       C  0.94774295  0.47823040  0.50278250     0.00500
C1379       C  0.94541735  0.45140575  0.49826104    -0.12500
C1380       C  0.92089016  0.43939414  0.49802655     0.01000
C1381       C  0.92633595  0.52117859  0.50986807     0.40300
C1382       C  0.91953634  0.41169032  0.49348398     0.36900
C1383       C  0.85995429  0.46608898  0.45918375     0.36700
C1384       C  0.83385805  0.39575381  0.54356416     0.37400
N1385       N  0.92738108  0.54351406  0.51254169    -0.43400
N1386       N  0.91842761  0.38947078  0.48995123    -0.43800
N1387       N  0.82885431  0.38174827  0.56103778    -0.41200
N1388       N  0.86531262  0.47983151  0.44160074    -0.42600
H1389       H  0.81436617  0.44256874  0.46617377     0.13500
H1390       H  0.87889196  0.42007950  0.53694850     0.10000
H1391       H  0.88290792  0.49301547  0.50871753     0.11100
H1392       H  0.96287977  0.43983085  0.49498304     0.16900
C1393       C  0.78788126  0.40452783  0.76554513    -0.01300
C1394       C  0.79383970  0.38511415  0.74651738     0.07300
C1395       C  0.81172262  0.39059421  0.72591193    -0.07300
C1396       C  0.82465195  0.41455276  0.72478284     0.04700
C1397       C  0.81940920  0.43377149  0.74440392    -0.14500
C1398       C  0.80043700  0.42870646  0.76417839    -0.07800
C1399       C  0.78295033  0.35844084  0.74863169     0.05700
C1400       C  0.75594347  0.35447930  0.74564440    -0.08900
C1401       C  0.74531032  0.32940551  0.74726174     0.00700
C1402       C  0.76193768  0.30785396  0.75140005     0.00500
C1403       C  0.78879678  0.31190054  0.75500777    -0.12500
C1404       C  0.79937635  0.33692269  0.75373512     0.01000
C1405       C  0.71731381  0.32631485  0.74543469     0.40300
C1406       C  0.82706148  0.34013209  0.75836607     0.36900
C1407       C  0.77021398  0.39951580  0.78758850     0.36700
C1408       C  0.84316773  0.41873388  0.70328119     0.37400
N1409       N  0.69483978  0.32394110  0.74421023    -0.43400
N1410       N  0.84922691  0.34276711  0.76216402    -0.43800
N1411       N  0.85803311  0.42199056  0.68605713    -0.41200
N1412       N  0.75615604  0.39540095  0.80531888    -0.42600
H1413       H  0.79621643  0.44324694  0.77934924     0.13500
H1414       H  0.81606523  0.37578833  0.71103606     0.10000
H1415       H  0.74320015  0.37100197  0.74209018     0.11100
H1416       H  0.80155756  0.29537652  0.75852880     0.16900
C1417       C  0.72920617  0.15641820  0.73949306    -0.01300
C1418       C  0.70416801  0.15075986  0.74992641     0.07300
C1419       C  0.68967332  0.17066998  0.76222089    -0.07300
C1420       C  0.69956182  0.19601220  0.76386759     0.04700
C1421       C  0.72443579  0.20175664  0.75315932    -0.14500
C1422       C  0.73904846  0.18183898  0.74100904    -0.07800
C1423       C  0.69247266  0.12435089  0.74795274     0.05700
C1424       C  0.70344381  0.10381482  0.76269564    -0.08900
C1425       C  0.69210608  0.07896135  0.76244894     0.00700
C1426       C  0.66927824  0.07430890  0.74706961     0.00500
C1427       C  0.65858776  0.09492985  0.73208584    -0.12500
C1428       C  0.66994564  0.11970393  0.73237955     0.01000
C1429       C  0.70379454  0.05907861  0.77905232     0.40300
C1430       C  0.65830343  0.14000365  0.71626670     0.36900
C1431       C  0.74477059  0.13663272  0.72650988     0.36700
C1432       C  0.68345633  0.21600687  0.77574101     0.37400
N1433       N  0.71322723  0.04327682  0.79249465    -0.43400
N1434       N  0.64897007  0.15625112  0.70333101    -0.43800
N1435       N  0.67048463  0.23202995  0.78519393    -0.41200
N1436       N  0.75723328  0.12073293  0.71614632    -0.42600
H1437       H  0.75811510  0.18623436  0.73258745     0.13500
H1438       H  0.67043803  0.16641095  0.77031082     0.10000
H1439       H  0.72063243  0.10739125  0.77489864     0.11100
H1440       H  0.64121620  0.09174159  0.72005346     0.16900
C1441       C  0.76224788  0.19160113  0.83024868    -0.01300
C1442       C  0.74836686  0.20071356  0.85285365     0.07300
C1443       C  0.73316342  0.22330864  0.85058574    -0.07300
C1444       C  0.73129396  0.23663021  0.82610658     0.04700
C1445       C  0.74460731  0.22713648  0.80320340    -0.14500
C1446       C  0.76015488  0.20471945  0.80566059    -0.07800
C1447       C  0.74933805  0.18697162  0.87907771     0.05700
C1448       C  0.76290728  0.19833742  0.90050705    -0.08900
C1449       C  0.76380326  0.18624266  0.92575074     0.00700
C1450       C  0.75064853  0.16233928  0.92993465     0.00500
C1451       C  0.73726352  0.15094068  0.90826212    -0.12500
C1452       C  0.73642995  0.16306864  0.88306221     0.01000
C1453       C  0.77898745  0.19849640  0.94663521     0.40300
C1454       C  0.72161357  0.15104061  0.86174741     0.36900
C1455       C  0.77944929  0.16939598  0.83210779     0.36700
C1456       C  0.71542611  0.25986055  0.82499963     0.37400
N1457       N  0.79125976  0.20830897  0.96330426    -0.43400
N1458       N  0.70974038  0.14150457  0.84460982    -0.43800
N1459       N  0.70284221  0.27857000  0.82419449    -0.41200
N1460       N  0.79338281  0.15170772  0.83366379    -0.42600
H1461       H  0.77110667  0.19775714  0.78844283     0.13500
H1462       H  0.72263715  0.23047653  0.86800336     0.10000
H1463       H  0.77296065  0.21667584  0.89741662     0.11100
H1464       H  0.72700788  0.13268230  0.91109341     0.16900
C1465       C  0.76665650  0.30688061  0.66699187    -0.01300
C1466       C  0.74311003  0.31101047  0.65278472     0.07300
C1467       C  0.71976602  0.30058571  0.66301527    -0.07300
C1468       C  0.71948523  0.28663035  0.68718839     0.04700
C1469       C  0.74297781  0.28258615  0.70148106    -0.14500
C1470       C  0.76642721  0.29258192  0.69096664    -0.07800
C1471       C  0.74235784  0.32519921  0.62671572     0.05700
C1472       C  0.73426113  0.31175815  0.60368552    -0.08900
C1473       C  0.73336096  0.32404323  0.57856835     0.00700
C1474       C  0.74082726  0.35048323  0.57609161     0.00500
C1475       C  0.74825017  0.36407597  0.59940286    -0.12500
C1476       C  0.74891525  0.35177115  0.62453718     0.01000
C1477       C  0.72461415  0.30887785  0.55589584     0.40300
C1478       C  0.75592781  0.36693000  0.64785423     0.36900
C1479       C  0.79132449  0.31683192  0.65728041     0.36700
C1480       C  0.69471151  0.27744564  0.69739313     0.37400
N1481       N  0.71752618  0.29663224  0.53782176    -0.43400
N1482       N  0.76163321  0.37902959  0.66653989    -0.43800
N1483       N  0.67486765  0.27015184  0.70567240    -0.41200
N1484       N  0.81107368  0.32503431  0.64969339    -0.42600
H1485       H  0.78462742  0.28924147  0.70158296     0.13500
H1486       H  0.70161853  0.30366485  0.65220050     0.10000
H1487       H  0.72880006  0.29142684  0.60533753     0.11100
H1488       H  0.75374568  0.38440508  0.59803896     0.16900
C1489       C  0.73960425  0.35237047  0.26575722    -0.01300
C1490       C  0.71363302  0.35827462  0.25841088     0.07300
C1491       C  0.69732608  0.33833802  0.24900236    -0.07300
C1492       C  0.70623932  0.31268638  0.24741878     0.04700
C1493       C  0.73203881  0.30660034  0.25523466    -0.14500
C1494       C  0.74862181  0.32667815  0.26400361    -0.07800
C1495       C  0.70281013  0.38502939  0.25993331     0.05700
C1496       C  0.71296730  0.40442368  0.24307911    -0.08900
C1497       C  0.70113276  0.42899761  0.24153861     0.00700
C1498       C  0.67843285  0.43433738  0.25689732     0.00500
C1499       C  0.66889425  0.41508685  0.27441540    -0.12500
C1500       C  0.68097359  0.39072724  0.27620694     0.01000
C1501       C  0.71214196  0.44781892  0.22321593     0.40300
C1502       C  0.67074357  0.37188636  0.29501580     0.36900
C1503       C  0.75706057  0.37213760  0.27582776     0.36700
C1504       C  0.68829893  0.29286689  0.23839568     0.37400
N1505       N  0.72107591  0.46282804  0.20850321    -0.43400
N1506       N  0.66263407  0.35677746  0.31011340    -0.43800
N1507       N  0.67399214  0.27697869  0.23102127    -0.41200
N1508       N  0.77109237  0.38794273  0.28392256    -0.42600
H1509       H  0.76854558  0.32217118  0.26984672     0.13500
H1510       H  0.67743426  0.34286299  0.24302909     0.10000
H1511       H  0.72971320  0.40006233  0.23045906     0.11100
H1512       H  0.65190508  0.41905441  0.28682443     0.16900
C1513       C  0.79724485  0.10393242  0.24794039    -0.01300
C1514       C  0.80991618  0.12629077  0.25773947     0.07300
C1515       C  0.83521399  0.12409608  0.26831520    -0.07300
C1516       C  0.84822890  0.10008259  0.26871727     0.04700
C1517       C  0.83580210  0.07763219  0.25823014    -0.14500
C1518       C  0.81014345  0.07990757  0.24833983    -0.07800
C1519       C  0.79715436  0.15218906  0.25677989     0.05700
C1520       C  0.77574575  0.15715541  0.27363467    -0.08900
C1521       C  0.76307800  0.18131153  0.27314580     0.00700
C1522       C  0.77175952  0.20095502  0.25532086     0.00500
C1523       C  0.79325919  0.19590127  0.23855280    -0.12500
C1524       C  0.80591018  0.17177241  0.23910206     0.01000
C1525       C  0.74105211  0.18528985  0.29087433     0.40300
C1526       C  0.82763202  0.16745019  0.22111115     0.36900
C1527       C  0.77139517  0.10542038  0.23638894     0.36700
C1528       C  0.87412787  0.09923333  0.28024091     0.37400
N1529       N  0.72346022  0.18848405  0.30514922    -0.43400
N1530       N  0.84504120  0.16406136  0.20665822    -0.43800
N1531       N  0.89485296  0.09873618  0.28956215    -0.41200
N1532       N  0.75071148  0.10671715  0.22706769    -0.42600
H1533       H  0.80028846  0.06298496  0.24022088     0.13500
H1534       H  0.84484987  0.14127765  0.27616027     0.10000
H1535       H  0.76898158  0.14209873  0.28724276     0.11100
H1536       H  0.80041806  0.21099781  0.22522002     0.16900
C1537       C  0.74249744  0.34984103  0.38151420    -0.01300
C1538       C  0.74811757  0.32308506  0.37983997     0.07300
C1539       C  0.75386305  0.30908857  0.40321287    -0.07300
C1540       C  0.75391816  0.32128304  0.42830064     0.04700
C1541       C  0.74874500  0.34830176  0.43015186    -0.14500
C1542       C  0.74306091  0.36225040  0.40650846    -0.07800
C1543       C  0.74825448  0.30915437  0.35391936     0.05700
C1544       C  0.77226988  0.30095504  0.34328043    -0.08900
C1545       C  0.77327346  0.28714624  0.31914333     0.00700
C1546       C  0.74990199  0.28131717  0.30539338     0.00500
C1547       C  0.72584164  0.28934810  0.31618037    -0.12500
C1548       C  0.72486625  0.30322350  0.34029753     0.01000
C1549       C  0.79847803  0.27970483  0.30849794     0.40300
C1550       C  0.69972764  0.31075271  0.35101278     0.36900
C1551       C  0.73609094  0.36486018  0.35787272     0.36700
C1552       C  0.75913215  0.30536423  0.45158964     0.37400
N1553       N  0.81860636  0.27363618  0.29987653    -0.43400
N1554       N  0.67964220  0.31685234  0.35971334    -0.43800
N1555       N  0.76314937  0.29241826  0.47016198    -0.41200
N1556       N  0.73073529  0.37678763  0.33893478    -0.42600
H1557       H  0.73878265  0.38289236  0.40751262     0.13500
H1558       H  0.75800945  0.28842562  0.40183197     0.10000
H1559       H  0.79024752  0.30548316  0.35383198     0.11100
H1560       H  0.70784069  0.28474730  0.30570625     0.16900
C1561       C  0.76432748  0.22304256  0.15815356    -0.01300
C1562       C  0.74934618  0.20029114  0.15434467     0.07300
C1563       C  0.73477028  0.19026622  0.17587335    -0.07300
C1564       C  0.73468136  0.20271557  0.20087536     0.04700
C1565       C  0.75009425  0.22515332  0.20485656    -0.14500
C1566       C  0.76464483  0.23518597  0.18328703    -0.07800
C1567       C  0.74869633  0.18654804  0.12814172     0.05700
C1568       C  0.75884893  0.16124955  0.12651610    -0.08900
C1569       C  0.75920478  0.14773984  0.10207797     0.00700
C1570       C  0.74942306  0.15977981  0.07852536     0.00500
C1571       C  0.73877741  0.18493649  0.08044083    -0.12500
C1572       C  0.73805324  0.19818892  0.10495472     0.01000
C1573       C  0.77010131  0.12181214  0.10191064     0.40300
C1574       C  0.72571539  0.22345183  0.10593952     0.36900
C1575       C  0.77960706  0.23420818  0.13663408     0.36700
C1576       C  0.71756985  0.19290362  0.22159863     0.37400
N1577       N  0.77879219  0.10101256  0.10198320    -0.43400
N1578       N  0.71583992  0.24370263  0.10671374    -0.43800
N1579       N  0.70362934  0.18505610  0.23803263    -0.41200
N1580       N  0.79158949  0.24328483  0.11926713    -0.42600
H1581       H  0.77633330  0.25256360  0.18615350     0.13500
H1582       H  0.72295216  0.17299133  0.17291505     0.10000
H1583       H  0.76677450  0.15213254  0.14440838     0.11100
H1584       H  0.73066930  0.19425075  0.06275740     0.16900
C1585       C  0.64668960  0.55073844  0.98926873    -0.01300
C1586       C  0.62839062  0.55625848  0.00974704     0.07300
C1587       C  0.63510665  0.57402587  0.02999490    -0.07300
C1588       C  0.65922401  0.58692509  0.02955663     0.04700
C1589       C  0.67744912  0.58150233  0.00893380    -0.14500
C1590       C  0.67107949  0.56305766  0.98925213    -0.07800
C1591       C  0.60189906  0.54433041  0.00985152     0.05700
C1592       C  0.59951857  0.51710766  0.01035526    -0.08900
C1593       C  0.57492301  0.50523732  0.00909463     0.00700
C1594       C  0.55217442  0.52070728  0.00819009     0.00500
C1595       C  0.55446095  0.54786147  0.00772584    -0.12500
C1596       C  0.57905270  0.55975825  0.00845656     0.01000
C1597       C  0.57349634  0.47724080  0.00739276     0.40300
C1598       C  0.58037276  0.58776447  0.00668671     0.36900
C1599       C  0.64040741  0.53356488  0.96727142     0.36700
C1600       C  0.66482045  0.60537349  0.05064504     0.37400
N1601       N  0.57234228  0.45482283  0.00566827    -0.43400
N1602       N  0.58149348  0.61020531  0.00522753    -0.43800
N1603       N  0.66929317  0.62022550  0.06747943    -0.41200
N1604       N  0.63531361  0.51986212  0.94961245    -0.42600
H1605       H  0.68482516  0.55896580  0.97318483     0.13500
H1606       H  0.62126489  0.57810297  0.04597912     0.10000
H1607       H  0.61696341  0.50511810  0.01122532     0.11100
H1608       H  0.53695161  0.55975314  0.00669448     0.16900
C1609       C  0.91829729  0.56114558  0.00431160    -0.01300
C1610       C  0.89595540  0.54669668  0.99696773     0.07300
C1611       C  0.89889465  0.52045394  0.98975435    -0.07300
C1612       C  0.92357428  0.50855970  0.98977678     0.04700
C1613       C  0.94600929  0.52323949  0.99639383    -0.14500
C1614       C  0.94299968  0.54939401  0.00387751    -0.07800
C1615       C  0.86942189  0.55864239  0.99675144     0.05700
C1616       C  0.86455483  0.57988105  0.97975167    -0.08900
C1617       C  0.84011899  0.59223674  0.97952148     0.00700
C1618       C  0.81982703  0.58320316  0.99648946     0.00500
C1619       C  0.82453069  0.56144770  0.01291117    -0.12500
C1620       C  0.84906550  0.54927881  0.01329373     0.01000
C1621       C  0.83637462  0.61377394  0.96127521     0.40300
C1622       C  0.85318556  0.52787589  0.03161044     0.36900
C1623       C  0.91631119  0.58786802  0.01300363     0.36700
C1624       C  0.92518338  0.48117618  0.98365433     0.37400
N1625       N  0.83334168  0.63101459  0.94663702    -0.43400
N1626       N  0.85653195  0.51073051  0.04628972    -0.43800
N1627       N  0.92619006  0.45919344  0.97877167    -0.41200
N1628       N  0.91472857  0.60927010  0.02001623    -0.42600
H1629       H  0.96010328  0.56072966  0.00923002     0.13500
H1630       H  0.88179992  0.50919929  0.98420778     0.10000
H1631       H  0.87999071  0.58686950  0.96663742     0.11100
H1632       H  0.80920917  0.55431521  0.02607123     0.16900
C1633       C  0.81283755  0.83730994  0.26933968    -0.01300
C1634       C  0.80377059  0.85588647  0.25064180     0.07300
C1635       C  0.78404752  0.84873230  0.23250229    -0.07300
C1636       C  0.77344873  0.82355949  0.23274840     0.04700
C1637       C  0.78331113  0.80459855  0.25070168    -0.14500
C1638       C  0.80322155  0.81180611  0.26866916    -0.07800
C1639       C  0.81535750  0.88248474  0.24922921     0.05700
C1640       C  0.84219588  0.88496627  0.24392526    -0.08900
C1641       C  0.85428323  0.90941034  0.24305770     0.00700
C1642       C  0.83939568  0.93225005  0.24769621     0.00500
C1643       C  0.81236107  0.92970707  0.25242779    -0.12500
C1644       C  0.80030463  0.90519283  0.25312152     0.01000
C1645       C  0.88193321  0.91019749  0.23715302     0.40300
C1646       C  0.77259130  0.90382654  0.25852934     0.36900
C1647       C  0.83103457  0.84435075  0.29026737     0.36700
C1648       C  0.75174517  0.81800424  0.21514796     0.37400
N1649       N  0.90408070  0.91067873  0.23233252    -0.43400
N1650       N  0.75035034  0.90273835  0.26272843    -0.43800
N1651       N  0.73422717  0.81351619  0.20120913    -0.41200
N1652       N  0.84530818  0.85017518  0.30724731    -0.42600
H1653       H  0.81107082  0.79754972  0.28253005     0.13500
H1654       H  0.77679524  0.86292300  0.21819904     0.10000
H1655       H  0.85379592  0.86760863  0.24043035     0.11100
H1656       H  0.80056102  0.94691458  0.25592753     0.16900
C1657       C  0.70128389  0.67332804  0.26005893    -0.01300
C1658       C  0.71583607  0.65050022  0.25488250     0.07300
C1659       C  0.74268322  0.65264639  0.24925724    -0.07300
C1660       C  0.75499255  0.67701736  0.24853533     0.04700
C1661       C  0.74026882  0.69983887  0.25305546    -0.14500
C1662       C  0.71355103  0.69766299  0.25913862    -0.07800
C1663       C  0.70319410  0.62437726  0.25464642     0.05700
C1664       C  0.68289756  0.61967839  0.23635400    -0.08900
C1665       C  0.66978433  0.59578251  0.23591586     0.00700
C1666       C  0.67726501  0.57567475  0.25374487     0.00500
C1667       C  0.69810601  0.58013091  0.27156532    -0.12500
C1668       C  0.71084350  0.60431056  0.27236782     0.01000
C1669       C  0.64901853  0.59237533  0.21660486     0.40300
C1670       C  0.73083140  0.60850309  0.29236532     0.36900
C1671       C  0.67383021  0.67223441  0.26681745     0.36700
C1672       C  0.78285093  0.67803005  0.24401362     0.37400
N1673       N  0.63231614  0.58959417  0.20120722    -0.43400
N1674       N  0.74676028  0.61199442  0.30845678    -0.43800
N1675       N  0.80522968  0.67865975  0.24057841    -0.41200
N1676       N  0.65182166  0.67130146  0.27219179    -0.42600
H1677       H  0.70219941  0.71511339  0.26295891     0.13500
H1678       H  0.75403252  0.63521704  0.24535890     0.10000
H1679       H  0.67716432  0.63487970  0.22242001     0.11100
H1680       H  0.70396174  0.56495894  0.28546784     0.16900
C1681       C  0.73193679  0.70261699  0.16787169    -0.01300
C1682       C  0.75414067  0.69770898  0.15183162     0.07300
C1683       C  0.77885891  0.70551829  0.16095626    -0.07300
C1684       C  0.78173996  0.71800542  0.18571805     0.04700
C1685       C  0.75950114  0.72331830  0.20163692    -0.14500
C1686       C  0.73472545  0.71565778  0.19237654    -0.07800
C1687       C  0.75227212  0.68407030  0.12565385     0.05700
C1688       C  0.73988370  0.69640531  0.10400308    -0.08900
C1689       C  0.73899092  0.68464687  0.07861422     0.00700
C1690       C  0.75068447  0.65993320  0.07461406     0.00500
C1691       C  0.76278574  0.64757494  0.09655621    -0.12500
C1692       C  0.76366669  0.65939868  0.12184445     0.01000
C1693       C  0.72568576  0.69835811  0.05730444     0.40300
C1694       C  0.77597335  0.64571083  0.14380559     0.36900
C1695       C  0.70630730  0.69359549  0.16011572     0.36700
C1696       C  0.80780244  0.72424315  0.19478621     0.37400
N1697       N  0.71499503  0.70939591  0.04027205    -0.43400
N1698       N  0.78576352  0.63491336  0.16155211    -0.43800
N1699       N  0.82872604  0.72902399  0.20210915    -0.41200
N1700       N  0.68576019  0.68620052  0.15410228    -0.42600
H1701       H  0.71751679  0.71978788  0.20439023     0.13500
H1702       H  0.79600428  0.70155019  0.14877038     0.10000
H1703       H  0.73112923  0.71542876  0.10691591     0.11100
H1704       H  0.77167951  0.62857741  0.09400366     0.16900
C1705       C  0.69642590  0.89968157  0.73328658    -0.01300
C1706       C  0.68513659  0.87943708  0.74840179     0.07300
C1707       C  0.66302620  0.88444136  0.76415639    -0.07300
C1708       C  0.65192254  0.90931359  0.76500777     0.04700
C1709       C  0.66303387  0.92978145  0.74971968    -0.14500
C1710       C  0.68539569  0.92464307  0.73408500    -0.07800
C1711       C  0.69625731  0.85287740  0.74833102     0.05700
C1712       C  0.71836327  0.84768353  0.76406579    -0.08900
C1713       C  0.72905208  0.82263306  0.76507745     0.00700
C1714       C  0.71782563  0.80249248  0.74967239     0.00500
C1715       C  0.69564854  0.80774056  0.73399346    -0.12500
C1716       C  0.68471466  0.83268528  0.73336357     0.01000
C1717       C  0.75160845  0.81811367  0.78187515     0.40300
C1718       C  0.66163530  0.83715233  0.71733593     0.36900
C1719       C  0.71899047  0.89502876  0.71647415     0.36700
C1720       C  0.62960005  0.91325862  0.78233441     0.37400
N1721       N  0.76964464  0.81447366  0.79539371    -0.43400
N1722       N  0.64306288  0.84072503  0.70458962    -0.43800
N1723       N  0.61175462  0.91636235  0.79629500    -0.41200
N1724       N  0.73703476  0.89108980  0.70301653    -0.42600
H1725       H  0.69406234  0.94003516  0.72212899     0.13500
H1726       H  0.65451934  0.86883269  0.77595612     0.10000
H1727       H  0.72708949  0.86320028  0.77576419     0.11100
H1728       H  0.68673864  0.79223015  0.72243836     0.16900
C1729       C  0.79853056  0.67096296  0.74387613    -0.01300
C1730       C  0.78394412  0.64851320  0.75035074     0.07300
C1731       C  0.75721479  0.65102373  0.75637989    -0.07300
C1732       C  0.74504449  0.67546251  0.75622971     0.04700
C1733       C  0.75992081  0.69798123  0.75081768    -0.14500
C1734       C  0.78648107  0.69537411  0.74421789    -0.07800
C1735       C  0.79638353  0.62237382  0.75091885     0.05700
C1736       C  0.81713331  0.61789272  0.76875130    -0.08900
C1737       C  0.83033582  0.59402517  0.76909642     0.00700
C1738       C  0.82275666  0.57399266  0.75125291     0.00500
C1739       C  0.80140584  0.57824762  0.73405150    -0.12500
C1740       C  0.78826126  0.60215271  0.73371483     0.01000
C1741       C  0.85103750  0.59053896  0.78848936     0.40300
C1742       C  0.76706178  0.60569243  0.71493145     0.36900
C1743       C  0.82570566  0.66937664  0.73608611     0.36700
C1744       C  0.71712909  0.67678407  0.76034089     0.37400
N1745       N  0.86753231  0.58779906  0.80414348    -0.43400
N1746       N  0.75001935  0.60844318  0.69991821    -0.43800
N1747       N  0.69471077  0.67775090  0.76343302    -0.41200
N1748       N  0.84746294  0.66809146  0.72978228    -0.42600
H1749       H  0.79787357  0.71256141  0.73942064     0.13500
H1750       H  0.74580892  0.63381385  0.76101688     0.10000
H1751       H  0.82307760  0.63320294  0.78242590     0.11100
H1752       H  0.79526648  0.56302901  0.72037223     0.16900
C1753       C  0.71354072  0.70358385  0.83833994    -0.01300
C1754       C  0.73716214  0.69715237  0.85144398     0.07300
C1755       C  0.76103147  0.70359430  0.83916095    -0.07300
C1756       C  0.76167365  0.71647414  0.81441737     0.04700
C1757       C  0.73812244  0.72225581  0.80097268    -0.14500
C1758       C  0.71420935  0.71607234  0.81331826    -0.07800
C1759       C  0.73756604  0.68415396  0.87815426     0.05700
C1760       C  0.72646571  0.65935458  0.88098354    -0.08900
C1761       C  0.72749312  0.64601953  0.90554295     0.00700
C1762       C  0.73999964  0.65755556  0.92796926     0.00500
C1763       C  0.75080606  0.68254230  0.92505766    -0.12500
C1764       C  0.74968495  0.69582044  0.90054289     0.01000
C1765       C  0.71555650  0.62059824  0.90688930     0.40300
C1766       C  0.76084814  0.72157781  0.89896014     0.36900
C1767       C  0.68845218  0.69837870  0.85055711     0.36700
C1768       C  0.78662771  0.72490169  0.80401126     0.37400
N1769       N  0.70594185  0.60023912  0.90783667    -0.43400
N1770       N  0.76985159  0.74218604  0.89761791    -0.43800
N1771       N  0.80662634  0.73185622  0.79581734    -0.41200
N1772       N  0.66834786  0.69424181  0.86037218    -0.42600
H1773       H  0.69602939  0.72107691  0.80335679     0.13500
H1774       H  0.77925528  0.69893269  0.84921187     0.10000
H1775       H  0.71725216  0.65023110  0.86378875     0.11100
H1776       H  0.76035058  0.69179200  0.94197587     0.16900
C1777       C  0.85317878  0.95408446  0.49193314    -0.01300
C1778       C  0.87545061  0.94181796  0.50275350     0.07300
C1779       C  0.87308153  0.91681267  0.51371943    -0.07300
C1780       C  0.84891888  0.90392958  0.51409348     0.04700
C1781       C  0.82644816  0.91613875  0.50313309    -0.14500
C1782       C  0.82901625  0.94123405  0.49213393    -0.07800
C1783       C  0.90137689  0.95483361  0.50287522     0.05700
C1784       C  0.90535731  0.97635328  0.51969904    -0.08900
C1785       C  0.92946964  0.98930393  0.52011840     0.00700
C1786       C  0.95000573  0.98087846  0.50320518     0.00500
C1787       C  0.94607530  0.95909957  0.48671089    -0.12500
C1788       C  0.92203524  0.94610403  0.48640190     0.01000
C1789       C  0.93249122  0.01143658  0.53768177     0.40300
C1790       C  0.91887985  0.92412366  0.46869463     0.36900
C1791       C  0.85480908  0.97971322  0.48015471     0.36700
C1792       C  0.84785342  0.87852827  0.52645501     0.37400
N1793       N  0.93489658  0.02913960  0.55180633    -0.43400
N1794       N  0.91641015  0.90648384  0.45450572    -0.43800
N1795       N  0.84710182  0.85821238  0.53646693    -0.41200
N1796       N  0.85623145  0.00027591  0.47078899    -0.42600
H1797       H  0.81211799  0.95087271  0.48351311     0.13500
H1798       H  0.89018861  0.90742739  0.52223041     0.10000
H1799       H  0.88955142  0.98302269  0.53251602     0.11100
H1800       H  0.96189674  0.95218799  0.47406330     0.16900
C1801       C  0.58321863  0.94058589  0.51474506    -0.01300
C1802       C  0.60327159  0.95009680  0.49794848     0.07300
C1803       C  0.59809172  0.97117757  0.48086075    -0.07300
C1804       C  0.57327985  0.98274603  0.48026406     0.04700
C1805       C  0.55306962  0.97306868  0.49690794    -0.14500
C1806       C  0.55832541  0.95192539  0.51394211    -0.07800
C1807       C  0.62971704  0.93814594  0.49787394     0.05700
C1808       C  0.63265682  0.91256753  0.48862618    -0.08900
C1809       C  0.65712879  0.90029191  0.48883074     0.00700
C1810       C  0.67944797  0.91391286  0.49818164     0.00500
C1811       C  0.67634582  0.93962829  0.50728681    -0.12500
C1812       C  0.65178807  0.95170883  0.50731212     0.01000
C1813       C  0.65844908  0.87375138  0.47941106     0.40300
C1814       C  0.64951822  0.97770918  0.51800132     0.36900
C1815       C  0.58800380  0.91965133  0.53345044     0.36700
C1816       C  0.56922029  0.00487192  0.46286038     0.37400
N1817       N  0.65930561  0.85245414  0.47192678    -0.43400
N1818       N  0.64763891  0.99851078  0.52665894    -0.43800
N1819       N  0.56596192  0.02261857  0.44893855    -0.41200
N1820       N  0.59202397  0.90294326  0.54848094    -0.42600
H1821       H  0.54290652  0.94420175  0.52660016     0.13500
H1822       H  0.61350439  0.97859398  0.46797747     0.10000
H1823       H  0.61565684  0.90210171  0.48136768     0.11100
H1824       H  0.69309959  0.95030061  0.51478332     0.16900
C1825       C  0.75791565  0.80692049  0.60314622    -0.01300
C1826       C  0.74444040  0.81843028  0.62476809     0.07300
C1827       C  0.73244454  0.84270209  0.62132583    -0.07300
C1828       C  0.73367860  0.85562004  0.59657839     0.04700
C1829       C  0.74743086  0.84423416  0.57486293    -0.14500
C1830       C  0.75924002  0.81979046  0.57842324    -0.07800
C1831       C  0.74234967  0.80512994  0.65101725     0.05700
C1832       C  0.75915459  0.81250639  0.67187031    -0.08900
C1833       C  0.75867731  0.79938252  0.69651626     0.00700
C1834       C  0.74070655  0.77893727  0.70064135     0.00500
C1835       C  0.72386680  0.77164263  0.67975908    -0.12500
C1836       C  0.72460264  0.78453246  0.65501954     0.01000
C1837       C  0.77765306  0.80633807  0.71669414     0.40300
C1838       C  0.70715838  0.77625673  0.63392062     0.36900
C1839       C  0.77077119  0.78205746  0.60606307     0.36700
C1840       C  0.71973486  0.87992248  0.59376992     0.37400
N1841       N  0.79313902  0.81186315  0.73262392    -0.43400
N1842       N  0.69328051  0.76963767  0.61690960    -0.43800
N1843       N  0.70845678  0.89932187  0.59140226    -0.41200
N1844       N  0.78105896  0.76213764  0.60851747    -0.42600
H1845       H  0.76983582  0.81083775  0.56196202     0.13500
H1846       H  0.72180769  0.85137591  0.63792736     0.10000
H1847       H  0.77309688  0.82809106  0.66861137     0.11100
H1848       H  0.71015790  0.75582246  0.68283524     0.16900
C1849       C  0.74662944  0.80908064  0.39802537    -0.01300
C1850       C  0.76053926  0.82047496  0.37664040     0.07300
C1851       C  0.77293486  0.84447717  0.38024848    -0.07300
C1852       C  0.77184538  0.85717402  0.40506755     0.04700
C1853       C  0.75810994  0.84566134  0.42671177    -0.14500
C1854       C  0.74565211  0.82161543  0.42289087    -0.07800
C1855       C  0.76236106  0.80741709  0.35037160     0.05700
C1856       C  0.74535942  0.81510563  0.32980658    -0.08900
C1857       C  0.74517751  0.80191549  0.30527156     0.00700
C1858       C  0.76248523  0.78092465  0.30111358     0.00500
C1859       C  0.77959942  0.77336290  0.32168158    -0.12500
C1860       C  0.77974261  0.78653109  0.34620804     0.01000
C1861       C  0.72638045  0.80952090  0.28513491     0.40300
C1862       C  0.79774080  0.77829178  0.36686541     0.36900
C1863       C  0.73295806  0.78472226  0.39467626     0.36700
C1864       C  0.78580599  0.88142241  0.40798911     0.37400
N1865       N  0.71117685  0.81558978  0.26910934    -0.43400
N1866       N  0.81215676  0.77171188  0.38343928    -0.43800
N1867       N  0.79702690  0.90082388  0.41041104    -0.41200
N1868       N  0.72199018  0.76523995  0.39180502    -0.42600
H1869       H  0.73485299  0.81273429  0.43926189     0.13500
H1870       H  0.78368971  0.85313089  0.36370971     0.10000
H1871       H  0.73179305  0.83100319  0.33321310     0.11100
H1872       H  0.79293154  0.75723546  0.31845282     0.16900
loop_ 
_geom_bond_atom_site_label_1 
_geom_bond_atom_site_label_2 
_geom_bond_distance 
_geom_bond_site_symmetry_2 
_ccdc_geom_bond_type 
In1           O3   2.232       .  S
In1           O4   2.242       .  S
In1          O12   2.238       .  S
In1           O6   2.249       .  S
In1           O8   2.252       .  S
In1           O9   2.239       .  S
In1          O10   2.245       .  S
In1          O13   2.229       .  S
C2            O8   1.263       .  A
C2           O10   1.260       .  A
C2         C1781   1.489       .  S
O3           C11   1.261       .  A
O4           C11   1.262       .  A
C5           O12   1.259       .  A
C5            O6   1.263       .  A
C5         C1810   1.487       .  S
C7            O9   1.262       .  A
C7           O13   1.260       .  A
C7         C1853   1.476       .  S
C11        C1829   1.480       .  S
C14        C1714   1.482       .  S
C14          C15   1.411       .  A
C14          C19   1.402       .  A
C15        C1834   1.481       .  S
C15          C16   1.399       .  A
C16          C17   1.403       .  A
C16          H21   1.085       .  S
C17        C1733   1.485       .  S
C17          C18   1.417       .  A
C18        C1757   1.484       .  S
C18          C19   1.402       .  A
C19          H20   1.084       .  S
C22        C1637   1.498       .  S
C22          C23   1.415       .  A
C22          C27   1.405       .  A
C23        C1858   1.477       .  S
C23          C24   1.401       .  A
C24          C25   1.400       .  A
C24          H29   1.085       .  S
C25        C1661   1.488       .  S
C25          C26   1.416       .  A
C26        C1685   1.486       .  S
C26          C27   1.407       .  A
C27          H28   1.084       .  S
In30         O32   2.245       .  S
In30         O33   2.249       .  S
In30         O41   2.242   1_554  S
In30         O35   2.255       .  S
In30         O37   2.245   1_554  S
In30         O38   2.248   1_554  S
In30         O39   2.239       .  S
In30         O42   2.248   1_554  S
C31          O37   1.262   1_554  A
C31          O39   1.260       .  A
C31        C1589   1.478       .  S
O32          C40   1.261       .  A
O33          C40   1.261       .  A
C34          O41   1.259       .  A
C34          O35   1.261   1_556  A
C34        C1618   1.485       .  S
C36          O38   1.262       .  A
C36          O42   1.259       .  A
C36        C1762   1.488       .  S
C40        C1690   1.488       .  S
C43        C1565   1.485       .  S
C43          C44   1.418       .  A
C43          C48   1.403       .  A
C44        C1522   1.488       .  S
C44          C45   1.402       .  A
C45          C46   1.399       .  A
C45          H50   1.084       .  S
C46        C1546   1.480       .  S
C46          C47   1.411       .  A
C47        C1493   1.487       .  S
C47          C48   1.401       .  A
C48          H49   1.084       .  S
C51        C1469   1.491       .  S
C51          C52   1.414       .  A
C51          C56   1.404       .  A
C52        C1402   1.481       .  S
C52          C53   1.401       .  A
C53          C54   1.403       .  A
C53          H58   1.084       .  S
C54        C1445   1.490       .  S
C54          C55   1.416       .  A
C55        C1421   1.484       .  S
C55          C56   1.405       .  A
C56          H57   1.084       .  S
In59         O61   2.250       .  S
In59         O62   2.245       .  S
In59         O70   2.231       .  S
In59         O64   2.256       .  S
In59         O66   2.249       .  S
In59         O67   2.240       .  S
In59         O68   2.238       .  S
In59         O71   2.240       .  S
C60          O66   1.260       .  A
C60          O68   1.259       .  A
C60        C1373   1.477       .  S
O61          C69   1.262       .  A
O62          C69   1.261       .  A
C63          O70   1.259       .  A
C63          O64   1.261       .  A
C63        C1349   1.480       .  S
C65          O67   1.261       .  A
C65          O71   1.261       .  A
C65        C1541   1.484       .  S
C69        C1474   1.490       .  S
In72         O74   2.247       .  S
In72         O75   2.242       .  S
In72         O83   2.235   1_554  S
In72         O77   2.257       .  S
In72         O79   2.252   1_554  S
In72         O80   2.250   1_554  S
In72         O81   2.239       .  S
In72         O84   2.248   1_554  S
C73          O79   1.263   1_554  A
C73          O81   1.259       .  A
C73        C1306   1.485       .  S
O74          C82   1.260       .  A
O75          C82   1.262       .  A
C76          O83   1.259   1_554  A
C76          O77   1.262       .  A
C76        C1325   1.484       .  S
C78          O80   1.262       .  A
C78          O84   1.261       .  A
C78        C1450   1.487       .  S
C82        C1570   1.485       .  S
In85         O87   2.249       .  S
In85         O88   2.250       .  S
In85         O96   2.244       .  S
In85         O90   2.248       .  S
In85         O92   2.256       .  S
In85         O93   2.242       .  S
In85         O94   2.243       .  S
In85         O97   2.257       .  S
C86          O92   1.260       .  A
C86          O94   1.258       .  A
C86        C1397   1.482       .  S
O87          C95   1.262       .  A
O88          C95   1.262       .  A
C89          O96   1.259       .  A
C89          O90   1.261       .  A
C89        C1738   1.483       .  S
C91          O93   1.260       .  A
C91          O97   1.261       .  A
C91        C1253   1.488       .  S
C95        C1277   1.491       .  S
In98        O100   2.258       .  S
In98        O101   2.257       .  S
In98        O109   2.255       .  S
In98        O103   2.256       .  S
In98        O105   2.255       .  S
In98        O106   2.258       .  S
In98        O107   2.248       .  S
In98        O110   2.252       .  S
C99         O105   1.261       .  A
C99         O107   1.260       .  A
C99        C1186   1.489       .  S
O100        C108   1.260       .  A
O101        C108   1.261       .  A
C102        O109   1.261       .  A
C102        O103   1.261       .  A
C102       C1157   1.490       .  S
C104        O106   1.263       .  A
C104        O110   1.261       .  A
C104       C1234   1.494       .  S
C108       C1210   1.491       .  S
C111       C1258   1.493       .  S
C111        C112   1.417       .  A
C111        C116   1.406   1_655  A
C112       C1613   1.489       .  S
C112        C113   1.405   1_556  A
C113        C114   1.405   1_655  A
C113        H118   1.084       .  S
C114       C1205   1.493       .  S
C114        C115   1.417   1_554  A
C115       C1138   1.490       .  S
C115        C116   1.404       .  A
C116        H117   1.084       .  S
C119       C1378   1.481       .  S
C119        C120   1.416       .  A
C119        C124   1.404       .  A
C120       C1282   1.487       .  S
C120        C121   1.402   1_655  A
C121        C122   1.402       .  A
C121        H126   1.084       .  S
C122       C1109   1.480       .  S
C122        C123   1.410       .  A
C123       C1229   1.482       .  S
C123        C124   1.399   1_455  A
C124        H125   1.084       .  S
C127       C1085   1.495       .  S
C127        C128   1.414       .  A
C127        C132   1.405       .  A
C128       C1594   1.480       .  S
C128        C129   1.403   1_554  A
C129        C130   1.402       .  A
C129        H134   1.085       .  S
C130       C1061   1.490       .  S
C130        C131   1.416   1_556  A
C131       C1037   1.484       .  S
C131        C132   1.407       .  A
C132        H133   1.084       .  S
In135       O137   2.252       .  S
In135       O138   2.247       .  S
In135       O146   2.240       .  S
In135       O140   2.248       .  S
In135       O142   2.257       .  S
In135       O143   2.256       .  S
In135       O144   2.239       .  S
In135       O147   2.247       .  S
C136        O142   1.262       .  A
C136        O144   1.260       .  A
C136        C994   1.486       .  S
O137        C145   1.263       .  A
O138        C145   1.260       .  A
C139        O146   1.260       .  A
C139        O140   1.262       .  A
C139        C970   1.480       .  S
C141        O143   1.263       .  A
C141        O147   1.261       .  A
C141       C1013   1.490       .  S
C145       C1066   1.488       .  S
C148       C1354   1.489       .  S
C148        C149   1.415       .  A
C148        C153   1.405       .  A
C149        C946   1.488       .  S
C149        C150   1.403       .  A
C150        C151   1.407       .  A
C150        H155   1.084       .  S
C151        C917   1.488       .  S
C151        C152   1.417       .  A
C152       C1018   1.491       .  S
C152        C153   1.403       .  A
C153        H154   1.084       .  S
In156       O158   2.259       .  S
In156       O159   2.262       .  S
In156       O167   2.243       .  S
In156       O161   2.253       .  S
In156       O163   2.264       .  S
In156       O164   2.257       .  S
In156       O165   2.242       .  S
In156       O168   2.252       .  S
C157        O163   1.260       .  A
C157        O165   1.259       .  A
C157       C1666   1.486       .  S
O158        C166   1.261       .  A
O159        C166   1.261       .  A
C160        O167   1.260       .  A
C160        O161   1.260       .  A
C160       C1498   1.485       .  S
C162        O164   1.262       .  A
C162        O168   1.259       .  A
C162        C941   1.492       .  S
C166       C1090   1.495       .  S
C169        C965   1.480       .  S
C169        C170   1.412       .  A
C169        C174   1.400       .  A
C170        C869   1.485       .  S
C170        C171   1.402       .  A
C171        C172   1.403       .  A
C171        H176   1.084       .  S
C172        C845   1.486       .  S
C172        C173   1.416       .  A
C173        C898   1.482       .  S
C173        C174   1.402       .  A
C174        H175   1.085       .  S
In177       O179   2.234       .  S
In177       O180   2.259       .  S
In177       O188   2.242       .  S
In177       O182   2.258       .  S
In177       O184   2.248       .  S
In177       O185   2.247       .  S
In177       O186   2.245       .  S
In177       O189   2.246       .  S
C178        O184   1.262       .  A
C178        O186   1.261       .  A
C178        C797   1.485       .  S
O179        C187   1.260       .  A
O180        C187   1.262       .  A
C181        O188   1.258       .  A
C181        O182   1.259       .  A
C181        C773   1.485       .  S
C183        O185   1.262       .  A
C183        O189   1.260       .  A
C183        C893   1.485       .  S
C187        C821   1.482       .  S
C190       C1162   1.487       .  S
C190        C191   1.415       .  A
C190        C195   1.403       .  A
C191        C749   1.486       .  S
C191        C192   1.404       .  A
C192        C193   1.404       .  A
C192        H197   1.084       .  S
C193        C725   1.491       .  S
C193        C194   1.414       .  A
C194        C826   1.481       .  S
C194        C195   1.403       .  A
C195        H196   1.084       .  S
In198       O200   2.262   1_556  S
In198       O201   2.244   1_556  S
In198       O209   2.234       .  S
In198       O203   2.261   1_556  S
In198       O205   2.253       .  S
In198       O206   2.241       .  S
In198       O207   2.236   1_556  S
In198       O210   2.248       .  S
C199        O205   1.262       .  A
C199        O207   1.260   1_556  A
C199       C1042   1.487       .  S
O200        C208   1.261       .  A
O201        C208   1.259       .  A
C202        O209   1.258       .  A
C202        O203   1.262   1_556  A
C202       C1133   1.485       .  S
C204        O206   1.261       .  A
C204        O210   1.261       .  A
C204        C874   1.485       .  S
C208        C754   1.491       .  S
In211       O213   2.246   1_545  S
In211       O214   2.253       .  S
In211       O222   2.237   1_545  S
In211       O216   2.258   1_545  S
In211       O218   2.256       .  S
In211       O219   2.252       .  S
In211       O220   2.246       .  S
In211       O223   2.244       .  S
C212        O218   1.261       .  A
C212        O220   1.261       .  A
C212       C1426   1.488       .  S
O213        C221   1.261   1_565  A
O214        C221   1.262       .  A
C215        O222   1.258       .  A
C215        O216   1.262       .  A
C215       C1709   1.485       .  S
C217        O219   1.261       .  A
C217        O223   1.261       .  A
C217        C682   1.486       .  S
C221        C706   1.491   1_545  S
In224       O226   2.246   1_545  S
In224       O227   2.245   1_545  S
In224       O235   2.244   1_545  S
In224       O229   2.253   1_545  S
In224       O231   2.257       .  S
In224       O232   2.244       .  S
In224       O233   2.256       .  S
In224       O236   2.241       .  S
C225        O231   1.259       .  A
C225        O233   1.259       .  A
C225        C730   1.486       .  S
O226        C234   1.262       .  A
O227        C234   1.261       .  A
C228        O235   1.258       .  A
C228        O229   1.261       .  A
C228        C605   1.483       .  S
C230        O232   1.261       .  A
C230        O236   1.261       .  A
C230        C629   1.484       .  S
C234        C653   1.490       .  S
C237       C1301   1.480       .  S
C237        C238   1.412       .  A
C237        C242   1.397   1_556  A
C238        C677   1.484       .  S
C238        C239   1.405       .  A
C239        C240   1.405       .  A
C239        H244   1.084       .  S
C240        C586   1.488   1_545  S
C240        C241   1.413   1_556  A
C241        C634   1.479       .  S
C241        C242   1.399       .  A
C242        H243   1.085       .  S
C245        C701   1.485       .  S
C245        C246   1.415       .  A
C245        C250   1.401   1_565  A
C246       C1805   1.488       .  S
C246        C247   1.405       .  A
C247        C248   1.405       .  A
C247        H252   1.084       .  S
C248        C658   1.490       .  S
C248        C249   1.416   1_565  A
C249        C802   1.486       .  S
C249        C250   1.403       .  A
C250        H251   1.085       .  S
C253        C538   1.487       .  S
C253        C254   1.415       .  A
C253        C258   1.403       .  A
C254       C1181   1.489       .  S
C254        C255   1.404       .  A
C255        C256   1.406       .  A
C255        H260   1.084       .  S
C256        C557   1.495       .  S
C256        C257   1.418       .  A
C257        C610   1.487       .  S
C257        C258   1.405       .  A
C258        H259   1.085       .  S
In261       O263   2.247       .  S
In261       O264   2.254       .  S
In261       O272   2.253       .  S
In261       O266   2.249       .  S
In261       O268   2.251       .  S
In261       O269   2.248       .  S
In261       O270   2.234       .  S
In261       O273   2.248       .  S
C262        O268   1.262       .  A
C262        O270   1.259       .  A
C262        C922   1.487       .  S
O263        C271   1.259       .  A
O264        C271   1.262       .  A
C265        O272   1.260       .  A
C265        O266   1.260       .  A
C265       C1114   1.486       .  S
C267        O269   1.261       .  A
C267        O273   1.261       .  A
C267        C509   1.489       .  S
C271        C533   1.489       .  S
C274        C989   1.484       .  S
C274        C275   1.413       .  A
C274        C279   1.400       .  A
C275        C514   1.481       .  S
C275        C276   1.403       .  A
C276        C277   1.400       .  A
C276        H281   1.085       .  S
C277        C461   1.484       .  S
C277        C278   1.415       .  A
C278        C485   1.484       .  S
C278        C279   1.403       .  A
C279        H280   1.084       .  S
In282       O284   2.250       .  S
In282       O285   2.243       .  S
In282       O293   2.255   1_556  S
In282       O287   2.250       .  S
In282       O289   2.253   1_556  S
In282       O290   2.247   1_556  S
In282       O291   2.249       .  S
In282       O294   2.252   1_556  S
C283        O289   1.261   1_556  A
C283        O291   1.259       .  A
C283        C437   1.487       .  S
O284        C292   1.260       .  A
O285        C292   1.260       .  A
C286        O293   1.259   1_556  A
C286        O287   1.259       .  A
C286        C581   1.487   1_556  S
C288        O290   1.261       .  A
C288        O294   1.262       .  A
C288        C562   1.491       .  S
C292        C490   1.484       .  S
In295       O297   2.244       .  S
In295       O298   2.244   1_545  S
In295       O306   2.242       .  S
In295       O300   2.252       .  S
In295       O302   2.254   1_545  S
In295       O303   2.252       .  S
In295       O304   2.249   1_545  S
In295       O307   2.240   1_545  S
C296        O302   1.260       .  A
C296        O304   1.258       .  A
C296        C466   1.485       .  S
O297        C305   1.261       .  A
O298        C305   1.262   1_565  A
C299        O306   1.259       .  A
C299        O300   1.261       .  A
C299        C850   1.484       .  S
C301        O303   1.262   1_565  A
C301        O307   1.259       .  A
C301        C413   1.487       .  S
C305        C394   1.489       .  S
In308       O310   2.248       .  S
In308       O311   2.250       .  S
In308       O319   2.248       .  S
In308       O313   2.250       .  S
In308       O315   2.257   1_545  S
In308       O316   2.237   1_545  S
In308       O317   2.244   1_545  S
In308       O320   2.244       .  S
C309        O315   1.263       .  A
C309        O317   1.260       .  A
C309       C1642   1.492       .  S
O310        C318   1.260       .  A
O311        C318   1.261       .  A
C312        O319   1.259       .  A
C312        O313   1.262       .  A
C312       C1517   1.487       .  S
C314        O316   1.260   1_545  A
C314        O320   1.262       .  A
C314        C370   1.483       .  S
C318        C346   1.489       .  S
C321       C1330   1.487       .  S
C321        C322   1.412       .  A
C321        C326   1.403   1_554  A
C322        C341   1.482       .  S
C322        C323   1.402   1_645  A
C323        C324   1.404   1_554  A
C323        H328   1.084       .  S
C324        C442   1.488       .  S
C324        C325   1.416   1_565  A
C325        C389   1.484       .  S
C325        C326   1.403   1_455  A
C326        H327   1.084       .  S
C329       C1786   1.488       .  S
C329        C330   1.414   1_565  A
C329        C334   1.403       .  A
C330        C365   1.482       .  S
C330        C331   1.402   1_655  A
C331        C332   1.402       .  A
C331        H336   1.085       .  S
C332        C778   1.489       .  S
C332        C333   1.415       .  A
C333        C418   1.482       .  S
C333        C334   1.403   1_445  A
C334        H335   1.084       .  S
C337        C338   1.410       .  A
C337        C342   1.401       .  A
C337        C351   1.444       .  S
C338        C343   1.484       .  S
C338        C339   1.403   1_545  A
C339        C340   1.400       .  A
C339        H358   1.084       .  S
C340        C341   1.409   1_565  A
C340        C352   1.443       .  S
C341        C342   1.403       .  A
C342        H357   1.084       .  S
C343        C344   1.401       .  A
C343        C348   1.409       .  A
C344        C345   1.402       .  A
C344        H359   1.085       .  S
C345        C346   1.418       .  A
C345        C349   1.444       .  S
C346        C347   1.407       .  A
C347        C348   1.400       .  A
C347        H360   1.085       .  S
C348        C350   1.444       .  S
C349        N353   1.157       .  T
C350        N354   1.157   1_655  T
C351        N356   1.157       .  T
C352        N355   1.157       .  T
C361        C362   1.410   1_565  A
C361        C366   1.397       .  A
C361        C375   1.444       .  S
C362        C367   1.482       .  S
C362        C363   1.403       .  A
C363        C364   1.401       .  A
C363        H382   1.085       .  S
C364        C365   1.411       .  A
C364        C376   1.443       .  S
C365        C366   1.403   1_545  A
C366        H381   1.085   1_655  S
C367        C368   1.401   1_545  A
C367        C372   1.410       .  A
C368        C369   1.401       .  A
C368        H383   1.085       .  S
C369        C370   1.417   1_565  A
C369        C373   1.444       .  S
C370        C371   1.405       .  A
C371        C372   1.399       .  A
C371        H384   1.085       .  S
C372        C374   1.444       .  S
C373        N377   1.157       .  T
C374        N378   1.157       .  T
C375        N380   1.157       .  T
C376        N379   1.157       .  T
C385        C386   1.411       .  A
C385        C390   1.400       .  A
C385        C399   1.444       .  S
C386        C391   1.487       .  S
C386        C387   1.405   1_545  A
C387        C388   1.402       .  A
C387        H406   1.084       .  S
C388        C389   1.410   1_565  A
C388        C400   1.443       .  S
C389        C390   1.402       .  A
C390        H405   1.085       .  S
C391        C392   1.403       .  A
C391        C396   1.409   1_545  A
C392        C393   1.401       .  A
C392        H407   1.085       .  S
C393        C394   1.417       .  A
C393        C397   1.444       .  S
C394        C395   1.407   1_545  A
C395        C396   1.401       .  A
C395        H408   1.084       .  S
C396        C398   1.444       .  S
C397        N401   1.157       .  T
C398        N402   1.157       .  T
C399        N404   1.157       .  T
C400        N403   1.157       .  T
C409        C410   1.411   1_545  A
C409        C414   1.400       .  A
C409        C423   1.445       .  S
C410        C415   1.488       .  S
C410        C411   1.403       .  A
C411        C412   1.401       .  A
C411        H430   1.085       .  S
C412        C413   1.417       .  A
C412        C424   1.444       .  S
C413        C414   1.406   1_565  A
C414        H429   1.084       .  S
C415        C416   1.405   1_565  A
C415        C420   1.412       .  A
C416        C417   1.399       .  A
C416        H431   1.085       .  S
C417        C418   1.409       .  A
C417        C421   1.443       .  S
C418        C419   1.403   1_545  A
C419        C420   1.400       .  A
C419        H432   1.085       .  S
C420        C422   1.444       .  S
C421        N425   1.157       .  T
C422        N426   1.157       .  T
C423        N428   1.157       .  T
C424        N427   1.157       .  T
C433        C434   1.412   1_554  A
C433        C438   1.401       .  A
C433        C447   1.444       .  S
C434        C439   1.493       .  S
C434        C435   1.404       .  A
C435        C436   1.403       .  A
C435        H454   1.085       .  S
C436        C437   1.417       .  A
C436        C448   1.445       .  S
C437        C438   1.405   1_556  A
C438        H453   1.085       .  S
C439        C440   1.406       .  A
C439        C444   1.413   1_556  A
C440        C441   1.402       .  A
C440        H455   1.084       .  S
C441        C442   1.411       .  A
C441        C445   1.443   1_565  S
C442        C443   1.403   1_556  A
C443        C444   1.401       .  A
C443        H456   1.085       .  S
C444        C446   1.444       .  S
C445        N449   1.157       .  T
C446        N450   1.157       .  T
C447        N452   1.157       .  T
C448        N451   1.158       .  T
C457        C458   1.411       .  A
C457        C462   1.399       .  A
C457        C471   1.444       .  S
C458        C463   1.486       .  S
C458        C459   1.405       .  A
C459        C460   1.402       .  A
C459        H478   1.085       .  S
C460        C461   1.410       .  A
C460        C472   1.443       .  S
C461        C462   1.402       .  A
C462        H477   1.085       .  S
C463        C464   1.403       .  A
C463        C468   1.409       .  A
C464        C465   1.402       .  A
C464        H479   1.085       .  S
C465        C466   1.416       .  A
C465        C469   1.444       .  S
C466        C467   1.406       .  A
C467        C468   1.401       .  A
C467        H480   1.085       .  S
C468        C470   1.444       .  S
C469        N473   1.157       .  T
C470        N474   1.157       .  T
C471        N476   1.157       .  T
C472        N475   1.157       .  T
C481        C482   1.408       .  A
C481        C486   1.398       .  A
C481        C495   1.443       .  S
C482        C487   1.477       .  S
C482        C483   1.400       .  A
C483        C484   1.398       .  A
C483        H502   1.085       .  S
C484        C485   1.413       .  A
C484        C496   1.444       .  S
C485        C486   1.405       .  A
C486        H501   1.084       .  S
C487        C488   1.399       .  A
C487        C492   1.407       .  A
C488        C489   1.399       .  A
C488        H503   1.085       .  S
C489        C490   1.416       .  A
C489        C493   1.444       .  S
C490        C491   1.408       .  A
C491        C492   1.401       .  A
C491        H504   1.084       .  S
C492        C494   1.445       .  S
C493        N497   1.157       .  T
C494        N498   1.157       .  T
C495        N500   1.157       .  T
C496        N499   1.157       .  T
C505        C506   1.408       .  A
C505        C510   1.400       .  A
C505        C519   1.445       .  S
C506        C511   1.483       .  S
C506        C507   1.401       .  A
C507        C508   1.402       .  A
C507        H526   1.085       .  S
C508        C509   1.418       .  A
C508        C520   1.444       .  S
C509        C510   1.408       .  A
C510        H525   1.084       .  S
C511        C512   1.402       .  A
C511        C516   1.411       .  A
C512        C513   1.400       .  A
C512        H527   1.085       .  S
C513        C514   1.412       .  A
C513        C517   1.444       .  S
C514        C515   1.402       .  A
C515        C516   1.398       .  A
C515        H528   1.085       .  S
C516        C518   1.444       .  S
C517        N521   1.157       .  T
C518        N522   1.157       .  T
C519        N524   1.157       .  T
C520        N523   1.157       .  T
C529        C530   1.410       .  A
C529        C534   1.401       .  A
C529        C543   1.444       .  S
C530        C535   1.488       .  S
C530        C531   1.401       .  A
C531        C532   1.403       .  A
C531        H550   1.085       .  S
C532        C533   1.418       .  A
C532        C544   1.444       .  S
C533        C534   1.406       .  A
C534        H549   1.084       .  S
C535        C536   1.404       .  A
C535        C540   1.411       .  A
C536        C537   1.403       .  A
C536        H551   1.084       .  S
C537        C538   1.412       .  A
C537        C541   1.444       .  S
C538        C539   1.403       .  A
C539        C540   1.400       .  A
C539        H552   1.084       .  S
C540        C542   1.444       .  S
C541        N545   1.157       .  T
C542        N546   1.157       .  T
C543        N548   1.157       .  T
C544        N547   1.157       .  T
C553        C554   1.409       .  A
C553        C558   1.402       .  A
C553        C567   1.444       .  S
C554        C559   1.485       .  S
C554        C555   1.401       .  A
C555        C556   1.400       .  A
C555        H574   1.085       .  S
C556        C557   1.415       .  A
C556        C568   1.444       .  S
C557        C558   1.407       .  A
C558        H573   1.084       .  S
C559        C560   1.401       .  A
C559        C564   1.408       .  A
C560        C561   1.403       .  A
C560        H575   1.085       .  S
C561        C562   1.419       .  A
C561        C565   1.444       .  S
C562        C563   1.408       .  A
C563        C564   1.401       .  A
C563        H576   1.084       .  S
C564        C566   1.444       .  S
C565        N569   1.157       .  T
C566        N570   1.157       .  T
C567        N572   1.157       .  T
C568        N571   1.157       .  T
C577        C578   1.409       .  A
C577        C582   1.402       .  A
C577        C591   1.444       .  S
C578        C583   1.484       .  S
C578        C579   1.401   1_554  A
C579        C580   1.401       .  A
C579        H598   1.085       .  S
C580        C581   1.416   1_556  A
C580        C592   1.444       .  S
C581        C582   1.407       .  A
C582        H597   1.084       .  S
C583        C584   1.402   1_554  A
C583        C588   1.410       .  A
C584        C585   1.399       .  A
C584        H599   1.085       .  S
C585        C586   1.412       .  A
C585        C589   1.444       .  S
C586        C587   1.406   1_566  A
C587        C588   1.402   1_545  A
C587        H600   1.084       .  S
C588        C590   1.443   1_565  S
C589        N593   1.157       .  T
C590        N594   1.157       .  T
C591        N596   1.157       .  T
C592        N595   1.157       .  T
C601        C602   1.410       .  A
C601        C606   1.400       .  A
C601        C615   1.444       .  S
C602        C607   1.486       .  S
C602        C603   1.403       .  A
C603        C604   1.401       .  A
C603        H622   1.085       .  S
C604        C605   1.416       .  A
C604        C616   1.445       .  S
C605        C606   1.405       .  A
C606        H621   1.085       .  S
C607        C608   1.404       .  A
C607        C612   1.411       .  A
C608        C609   1.401       .  A
C608        H623   1.085       .  S
C609        C610   1.412       .  A
C609        C613   1.443       .  S
C610        C611   1.404       .  A
C611        C612   1.400       .  A
C611        H624   1.085       .  S
C612        C614   1.444       .  S
C613        N617   1.157       .  T
C614        N618   1.157       .  T
C615        N620   1.157       .  T
C616        N619   1.157       .  T
C625        C626   1.409   1_565  A
C625        C630   1.399       .  A
C625        C639   1.445       .  S
C626        C631   1.480       .  S
C626        C627   1.401       .  A
C627        C628   1.399       .  A
C627        H646   1.085       .  S
C628        C629   1.416       .  A
C628        C640   1.444       .  S
C629        C630   1.407   1_545  A
C630        H645   1.084       .  S
C631        C632   1.402       .  A
C631        C636   1.411   1_545  A
C632        C633   1.397       .  A
C632        H647   1.085       .  S
C633        C634   1.410       .  A
C633        C637   1.444       .  S
C634        C635   1.403   1_545  A
C635        C636   1.398       .  A
C635        H648   1.085       .  S
C636        C638   1.443       .  S
C637        N641   1.157       .  T
C638        N642   1.157       .  T
C639        N644   1.157       .  T
C640        N643   1.157       .  T
C649        C650   1.407       .  A
C649        C654   1.400       .  A
C649        C663   1.444       .  S
C650        C655   1.482       .  S
C650        C651   1.401       .  A
C651        C652   1.403       .  A
C651        H670   1.085       .  S
C652        C653   1.419       .  A
C652        C664   1.444       .  S
C653        C654   1.408       .  A
C654        H669   1.084       .  S
C655        C656   1.401       .  A
C655        C660   1.409   1_565  A
C656        C657   1.401       .  A
C656        H671   1.085       .  S
C657        C658   1.415       .  A
C657        C661   1.444       .  S
C658        C659   1.405   1_565  A
C659        C660   1.400       .  A
C659        H672   1.084       .  S
C660        C662   1.443       .  S
C661        N665   1.157       .  T
C662        N666   1.157       .  T
C663        N668   1.157       .  T
C664        N667   1.158       .  T
C673        C674   1.410       .  A
C673        C678   1.398       .  A
C673        C687   1.444   1_545  S
C674        C679   1.483       .  S
C674        C675   1.404       .  A
C675        C676   1.402       .  A
C675        H694   1.085       .  S
C676        C677   1.411       .  A
C676        C688   1.444       .  S
C677        C678   1.403       .  A
C678        H693   1.084   1_545  S
C679        C680   1.401       .  A
C679        C684   1.409       .  A
C680        C681   1.400   1_545  A
C680        H695   1.085   1_545  S
C681        C682   1.416   1_565  A
C681        C685   1.444       .  S
C682        C683   1.407       .  A
C683        C684   1.401       .  A
C683        H696   1.084       .  S
C684        C686   1.445       .  S
C685        N689   1.157       .  T
C686        N690   1.157       .  T
C687        N692   1.157       .  T
C688        N691   1.157       .  T
C697        C698   1.412       .  A
C697        C702   1.402       .  A
C697        C711   1.444       .  S
C698        C703   1.488       .  S
C698        C699   1.404   1_565  A
C699        C700   1.401       .  A
C699        H718   1.085       .  S
C700        C701   1.410   1_545  A
C700        C712   1.443       .  S
C701        C702   1.404       .  A
C702        H717   1.085       .  S
C703        C704   1.401       .  A
C703        C708   1.411   1_565  A
C704        C705   1.401       .  A
C704        H719   1.085       .  S
C705        C706   1.418       .  A
C705        C709   1.444       .  S
C706        C707   1.408   1_565  A
C707        C708   1.403       .  A
C707        H720   1.084       .  S
C708        C710   1.444       .  S
C709        N713   1.157       .  T
C710        N714   1.157       .  T
C711        N716   1.157       .  T
C712        N715   1.157       .  T
C721        C722   1.411       .  A
C721        C726   1.404       .  A
C721        C735   1.443       .  S
C722        C727   1.486       .  S
C722        C723   1.401       .  A
C723        C724   1.400       .  A
C723        H742   1.085       .  S
C724        C725   1.413       .  A
C724        C736   1.444       .  S
C725        C726   1.406       .  A
C726        H741   1.084       .  S
C727        C728   1.402       .  A
C727        C732   1.409       .  A
C728        C729   1.403       .  A
C728        H743   1.085       .  S
C729        C730   1.416       .  A
C729        C733   1.444       .  S
C730        C731   1.406       .  A
C731        C732   1.402       .  A
C731        H744   1.085       .  S
C732        C734   1.444       .  S
C733        N737   1.157       .  T
C734        N738   1.157       .  T
C735        N740   1.157       .  T
C736        N739   1.157       .  T
C745        C746   1.414       .  A
C745        C750   1.401       .  A
C745        C759   1.444       .  S
C746        C751   1.490       .  S
C746        C747   1.404       .  A
C747        C748   1.400       .  A
C747        H766   1.085       .  S
C748        C749   1.411       .  A
C748        C760   1.444       .  S
C749        C750   1.403       .  A
C750        H765   1.085       .  S
C751        C752   1.403       .  A
C751        C756   1.412       .  A
C752        C753   1.401       .  A
C752        H767   1.085       .  S
C753        C754   1.418       .  A
C753        C757   1.444       .  S
C754        C755   1.408       .  A
C755        C756   1.403       .  A
C755        H768   1.084       .  S
C756        C758   1.445       .  S
C757        N761   1.157       .  T
C758        N762   1.157       .  T
C759        N764   1.157       .  T
C760        N763   1.157       .  T
C769        C770   1.411       .  A
C769        C774   1.398       .  A
C769        C783   1.444       .  S
C770        C775   1.490       .  S
C770        C771   1.405       .  A
C771        C772   1.403       .  A
C771        H790   1.085       .  S
C772        C773   1.416       .  A
C772        C784   1.444       .  S
C773        C774   1.405       .  A
C774        H789   1.085       .  S
C775        C776   1.404       .  A
C775        C780   1.412       .  A
C776        C777   1.399       .  A
C776        H791   1.085       .  S
C777        C778   1.412       .  A
C777        C781   1.444       .  S
C778        C779   1.405       .  A
C779        C780   1.401       .  A
C779        H792   1.084   1_545  S
C780        C782   1.444       .  S
C781        N785   1.157       .  T
C782        N786   1.157   1_545  T
C783        N788   1.157       .  T
C784        N787   1.157       .  T
C793        C794   1.412       .  A
C793        C798   1.401       .  A
C793        C807   1.444       .  S
C794        C799   1.491       .  S
C794        C795   1.404       .  A
C795        C796   1.402       .  A
C795        H814   1.085       .  S
C796        C797   1.415       .  A
C796        C808   1.444       .  S
C797        C798   1.405       .  A
C798        H813   1.085       .  S
C799        C800   1.406       .  A
C799        C804   1.413       .  A
C800        C801   1.401       .  A
C800        H815   1.084       .  S
C801        C802   1.410       .  A
C801        C805   1.443   1_545  S
C802        C803   1.403       .  A
C803        C804   1.400       .  A
C803        H816   1.085       .  S
C804        C806   1.444       .  S
C805        N809   1.157       .  T
C806        N810   1.157       .  T
C807        N812   1.157       .  T
C808        N811   1.157       .  T
C817        C818   1.411       .  A
C817        C822   1.403       .  A
C817        C831   1.444       .  S
C818        C823   1.484       .  S
C818        C819   1.401       .  A
C819        C820   1.399       .  A
C819        H838   1.085       .  S
C820        C821   1.414       .  A
C820        C832   1.444       .  S
C821        C822   1.406       .  A
C822        H837   1.085       .  S
C823        C824   1.403       .  A
C823        C828   1.412       .  A
C824        C825   1.399       .  A
C824        H839   1.085       .  S
C825        C826   1.409       .  A
C825        C829   1.443       .  S
C826        C827   1.403       .  A
C827        C828   1.401       .  A
C827        H840   1.085       .  S
C828        C830   1.444       .  S
C829        N833   1.157       .  T
C830        N834   1.157       .  T
C831        N836   1.157       .  T
C832        N835   1.157       .  T
C841        C842   1.412       .  A
C841        C846   1.398       .  A
C841        C855   1.444       .  S
C842        C847   1.489       .  S
C842        C843   1.405       .  A
C843        C844   1.402       .  A
C843        H862   1.085       .  S
C844        C845   1.412       .  A
C844        C856   1.443       .  S
C845        C846   1.402       .  A
C846        H861   1.085       .  S
C847        C848   1.403       .  A
C847        C852   1.412       .  A
C848        C849   1.400       .  A
C848        H863   1.085       .  S
C849        C850   1.415       .  A
C849        C853   1.444       .  S
C850        C851   1.405       .  A
C851        C852   1.401       .  A
C851        H864   1.085       .  S
C852        C854   1.444       .  S
C853        N857   1.157       .  T
C854        N858   1.157       .  T
C855        N860   1.157       .  T
C856        N859   1.157       .  T
C865        C866   1.409       .  A
C865        C870   1.399       .  A
C865        C879   1.444       .  S
C866        C871   1.479       .  S
C866        C867   1.401       .  A
C867        C868   1.399       .  A
C867        H886   1.085       .  S
C868        C869   1.412       .  A
C868        C880   1.444       .  S
C869        C870   1.405       .  A
C870        H885   1.084       .  S
C871        C872   1.400       .  A
C871        C876   1.408       .  A
C872        C873   1.400       .  A
C872        H887   1.085       .  S
C873        C874   1.417       .  A
C873        C877   1.444       .  S
C874        C875   1.408       .  A
C875        C876   1.400       .  A
C875        H888   1.084       .  S
C876        C878   1.445       .  S
C877        N881   1.157       .  T
C878        N882   1.157       .  T
C879        N884   1.157       .  T
C880        N883   1.157       .  T
C889        C890   1.412       .  A
C889        C894   1.400       .  A
C889        C903   1.444       .  S
C890        C895   1.490       .  S
C890        C891   1.404       .  A
C891        C892   1.401       .  A
C891        H910   1.085       .  S
C892        C893   1.415       .  A
C892        C904   1.444       .  S
C893        C894   1.405       .  A
C894        H909   1.085       .  S
C895        C896   1.405       .  A
C895        C900   1.414       .  A
C896        C897   1.399       .  A
C896        H911   1.084       .  S
C897        C898   1.409       .  A
C897        C901   1.443       .  S
C898        C899   1.402       .  A
C899        C900   1.400       .  A
C899        H912   1.085       .  S
C900        C902   1.444       .  S
C901        N905   1.157       .  T
C902        N906   1.157       .  T
C903        N908   1.157       .  T
C904        N907   1.157       .  T
C913        C914   1.410       .  A
C913        C918   1.398       .  A
C913        C927   1.444       .  S
C914        C919   1.484       .  S
C914        C915   1.403       .  A
C915        C916   1.401       .  A
C915        H934   1.085       .  S
C916        C917   1.414       .  A
C916        C928   1.444       .  S
C917        C918   1.404       .  A
C918        H933   1.084       .  S
C919        C920   1.401       .  A
C919        C924   1.409       .  A
C920        C921   1.399       .  A
C920        H935   1.085       .  S
C921        C922   1.417       .  A
C921        C925   1.444       .  S
C922        C923   1.408       .  A
C923        C924   1.402       .  A
C923        H936   1.084       .  S
C924        C926   1.444       .  S
C925        N929   1.157       .  T
C926        N930   1.157       .  T
C927        N932   1.157       .  T
C928        N931   1.157       .  T
C937        C938   1.410       .  A
C937        C942   1.402       .  A
C937        C951   1.444       .  S
C938        C943   1.489       .  S
C938        C939   1.402       .  A
C939        C940   1.404       .  A
C939        H958   1.085       .  S
C940        C941   1.419       .  A
C940        C952   1.444       .  S
C941        C942   1.407       .  A
C942        H957   1.084       .  S
C943        C944   1.404       .  A
C943        C948   1.412       .  A
C944        C945   1.402       .  A
C944        H959   1.085       .  S
C945        C946   1.411       .  A
C945        C949   1.443       .  S
C946        C947   1.404       .  A
C947        C948   1.402       .  A
C947        H960   1.085       .  S
C948        C950   1.443       .  S
C949        N953   1.157       .  T
C950        N954   1.157       .  T
C951        N956   1.157       .  T
C952        N955   1.157       .  T
C961        C962   1.410       .  A
C961        C966   1.400       .  A
C961        C975   1.444       .  S
C962        C967   1.481       .  S
C962        C963   1.403       .  A
C963        C964   1.400       .  A
C963        H982   1.085       .  S
C964        C965   1.409       .  A
C964        C976   1.443       .  S
C965        C966   1.402       .  A
C966        H981   1.085       .  S
C967        C968   1.402       .  A
C967        C972   1.409       .  A
C968        C969   1.402       .  A
C968        H983   1.085       .  S
C969        C970   1.415       .  A
C969        C973   1.444       .  S
C970        C971   1.405       .  A
C971        C972   1.399       .  A
C971        H984   1.085       .  S
C972        C974   1.444       .  S
C973        N977   1.157       .  T
C974        N978   1.157       .  T
C975        N980   1.157       .  T
C976        N979   1.157       .  T
C985        C986   1.410       .  A
C985        C990   1.401       .  A
C985        C999   1.444       .  S
C986        C991   1.485       .  S
C986        C987   1.403       .  A
C987        C988   1.399       .  A
C987       H1006   1.085       .  S
C988        C989   1.410       .  A
C988       C1000   1.442       .  S
C989        C990   1.404       .  A
C990       H1005   1.085       .  S
C991        C992   1.403       .  A
C991        C996   1.409       .  A
C992        C993   1.403       .  A
C992       H1007   1.085       .  S
C993        C994   1.417       .  A
C993        C997   1.444       .  S
C994        C995   1.406       .  A
C995        C996   1.399       .  A
C995       H1008   1.085       .  S
C996        C998   1.444       .  S
C997       N1001   1.157       .  T
C998       N1002   1.157       .  T
C999       N1004   1.157       .  T
C1000      N1003   1.157       .  T
C1009      C1010   1.410       .  A
C1009      C1014   1.402       .  A
C1009      C1023   1.444       .  S
C1010      C1015   1.488       .  S
C1010      C1011   1.402       .  A
C1011      C1012   1.404       .  A
C1011      H1030   1.085       .  S
C1012      C1013   1.418       .  A
C1012      C1024   1.444       .  S
C1013      C1014   1.406       .  A
C1014      H1029   1.084       .  S
C1015      C1016   1.404       .  A
C1015      C1020   1.411       .  A
C1016      C1017   1.404       .  A
C1016      H1031   1.085       .  S
C1017      C1018   1.413       .  A
C1017      C1021   1.443       .  S
C1018      C1019   1.404       .  A
C1019      C1020   1.401       .  A
C1019      H1032   1.085       .  S
C1020      C1022   1.443       .  S
C1021      N1025   1.157       .  T
C1022      N1026   1.157       .  T
C1023      N1028   1.157       .  T
C1024      N1027   1.157       .  T
C1033      C1034   1.411   1_554  A
C1033      C1038   1.398       .  A
C1033      C1047   1.444       .  S
C1034      C1039   1.486       .  S
C1034      C1035   1.404       .  A
C1035      C1036   1.401       .  A
C1035      H1054   1.085       .  S
C1036      C1037   1.412   1_556  A
C1036      C1048   1.444       .  S
C1037      C1038   1.402       .  A
C1038      H1053   1.085       .  S
C1039      C1040   1.403       .  A
C1039      C1044   1.409   1_556  A
C1040      C1041   1.401       .  A
C1040      H1055   1.085       .  S
C1041      C1042   1.417       .  A
C1041      C1045   1.444       .  S
C1042      C1043   1.407   1_556  A
C1043      C1044   1.399       .  A
C1043      H1056   1.084       .  S
C1044      C1046   1.444       .  S
C1045      N1049   1.157       .  T
C1046      N1050   1.157       .  T
C1047      N1052   1.157       .  T
C1048      N1051   1.157       .  T
C1057      C1058   1.412       .  A
C1057      C1062   1.400       .  A
C1057      C1071   1.444       .  S
C1058      C1063   1.489       .  S
C1058      C1059   1.404       .  A
C1059      C1060   1.403       .  A
C1059      H1078   1.085       .  S
C1060      C1061   1.413       .  A
C1060      C1072   1.443       .  S
C1061      C1062   1.404       .  A
C1062      H1077   1.085       .  S
C1063      C1064   1.403       .  A
C1063      C1068   1.410       .  A
C1064      C1065   1.404       .  A
C1064      H1079   1.085       .  S
C1065      C1066   1.418       .  A
C1065      C1069   1.444       .  S
C1066      C1067   1.405       .  A
C1067      C1068   1.401       .  A
C1067      H1080   1.084       .  S
C1068      C1070   1.443       .  S
C1069      N1073   1.157       .  T
C1070      N1074   1.157       .  T
C1071      N1076   1.157       .  T
C1072      N1075   1.157       .  T
C1081      C1082   1.412       .  A
C1081      C1086   1.402       .  A
C1081      C1095   1.444       .  S
C1082      C1087   1.494       .  S
C1082      C1083   1.405       .  A
C1083      C1084   1.405       .  A
C1083      H1102   1.085       .  S
C1084      C1085   1.413       .  A
C1084      C1096   1.444       .  S
C1085      C1086   1.405       .  A
C1086      H1101   1.084       .  S
C1087      C1088   1.403       .  A
C1087      C1092   1.412       .  A
C1088      C1089   1.405       .  A
C1088      H1103   1.085       .  S
C1089      C1090   1.418       .  A
C1089      C1093   1.444       .  S
C1090      C1091   1.408       .  A
C1091      C1092   1.404       .  A
C1091      H1104   1.084       .  S
C1092      C1094   1.445       .  S
C1093      N1097   1.157       .  T
C1094      N1098   1.157       .  T
C1095      N1100   1.157       .  T
C1096      N1099   1.157       .  T
C1105      C1106   1.410       .  A
C1105      C1110   1.399       .  A
C1105      C1119   1.443       .  S
C1106      C1111   1.481       .  S
C1106      C1107   1.402       .  A
C1107      C1108   1.399       .  A
C1107      H1126   1.085       .  S
C1108      C1109   1.410       .  A
C1108      C1120   1.444       .  S
C1109      C1110   1.403       .  A
C1110      H1125   1.084       .  S
C1111      C1112   1.401       .  A
C1111      C1116   1.408       .  A
C1112      C1113   1.400       .  A
C1112      H1127   1.085       .  S
C1113      C1114   1.416       .  A
C1113      C1117   1.444       .  S
C1114      C1115   1.408       .  A
C1115      C1116   1.401       .  A
C1115      H1128   1.084       .  S
C1116      C1118   1.444       .  S
C1117      N1121   1.157       .  T
C1118      N1122   1.157       .  T
C1119      N1124   1.157       .  T
C1120      N1123   1.157       .  T
C1129      C1130   1.408   1_554  A
C1129      C1134   1.402       .  A
C1129      C1143   1.443       .  S
C1130      C1135   1.481       .  S
C1130      C1131   1.400       .  A
C1131      C1132   1.400       .  A
C1131      H1150   1.082       .  S
C1132      C1133   1.417       .  A
C1132      C1144   1.445       .  S
C1133      C1134   1.407   1_556  A
C1134      H1149   1.084       .  S
C1135      C1136   1.401       .  A
C1135      C1140   1.409   1_556  A
C1136      C1137   1.402       .  A
C1136      H1151   1.085       .  S
C1137      C1138   1.415       .  A
C1137      C1141   1.444       .  S
C1138      C1139   1.404   1_556  A
C1139      C1140   1.399       .  A
C1139      H1152   1.085       .  S
C1140      C1142   1.444       .  S
C1141      N1145   1.157       .  T
C1142      N1146   1.157       .  T
C1143      N1148   1.157       .  T
C1144      N1147   1.157       .  T
C1153      C1154   1.410       .  A
C1153      C1158   1.401       .  A
C1153      C1167   1.444       .  S
C1154      C1159   1.490       .  S
C1154      C1155   1.403       .  A
C1155      C1156   1.405       .  A
C1155      H1174   1.085       .  S
C1156      C1157   1.417       .  A
C1156      C1168   1.444       .  S
C1157      C1158   1.406       .  A
C1158      H1173   1.085       .  S
C1159      C1160   1.404       .  A
C1159      C1164   1.411       .  A
C1160      C1161   1.402       .  A
C1160      H1175   1.085       .  S
C1161      C1162   1.410       .  A
C1161      C1165   1.443       .  S
C1162      C1163   1.404       .  A
C1163      C1164   1.403       .  A
C1163      H1176   1.085       .  S
C1164      C1166   1.443       .  S
C1165      N1169   1.157       .  T
C1166      N1170   1.157       .  T
C1167      N1172   1.157       .  T
C1168      N1171   1.157       .  T
C1177      C1178   1.411       .  A
C1177      C1182   1.401       .  A
C1177      C1191   1.443       .  S
C1178      C1183   1.489       .  S
C1178      C1179   1.404       .  A
C1179      C1180   1.400       .  A
C1179      H1198   1.085       .  S
C1180      C1181   1.413       .  A
C1180      C1192   1.443       .  S
C1181      C1182   1.405       .  A
C1182      H1197   1.085       .  S
C1183      C1184   1.403       .  A
C1183      C1188   1.411       .  A
C1184      C1185   1.404       .  A
C1184      H1199   1.085       .  S
C1185      C1186   1.417       .  A
C1185      C1189   1.444       .  S
C1186      C1187   1.407       .  A
C1187      C1188   1.400       .  A
C1187      H1200   1.084       .  S
C1188      C1190   1.444       .  S
C1189      N1193   1.157       .  T
C1190      N1194   1.157       .  T
C1191      N1196   1.157       .  T
C1192      N1195   1.157       .  T
C1201      C1202   1.412       .  A
C1201      C1206   1.402       .  A
C1201      C1215   1.443       .  S
C1202      C1207   1.491       .  S
C1202      C1203   1.404       .  A
C1203      C1204   1.401       .  A
C1203      H1222   1.085       .  S
C1204      C1205   1.414       .  A
C1204      C1216   1.444   1_455  S
C1205      C1206   1.405       .  A
C1206      H1221   1.085       .  S
C1207      C1208   1.403       .  A
C1207      C1212   1.411       .  A
C1208      C1209   1.402       .  A
C1208      H1223   1.085       .  S
C1209      C1210   1.416       .  A
C1209      C1213   1.444       .  S
C1210      C1211   1.408       .  A
C1211      C1212   1.404       .  A
C1211      H1224   1.084       .  S
C1212      C1214   1.444       .  S
C1213      N1217   1.157       .  T
C1214      N1218   1.157       .  T
C1215      N1220   1.157       .  T
C1216      N1219   1.157       .  T
C1225      C1226   1.412       .  A
C1225      C1230   1.402       .  A
C1225      C1239   1.443       .  S
C1226      C1231   1.487       .  S
C1226      C1227   1.404       .  A
C1227      C1228   1.401       .  A
C1227      H1246   1.085       .  S
C1228      C1229   1.409       .  A
C1228      C1240   1.443       .  S
C1229      C1230   1.402       .  A
C1230      H1245   1.085       .  S
C1231      C1232   1.401       .  A
C1231      C1236   1.409       .  A
C1232      C1233   1.404       .  A
C1232      H1247   1.085       .  S
C1233      C1234   1.419       .  A
C1233      C1237   1.444       .  S
C1234      C1235   1.408       .  A
C1235      C1236   1.402       .  A
C1235      H1248   1.084       .  S
C1236      C1238   1.444       .  S
C1237      N1241   1.157       .  T
C1238      N1242   1.157       .  T
C1239      N1244   1.157       .  T
C1240      N1243   1.157       .  T
C1249      C1250   1.408       .  A
C1249      C1254   1.403       .  A
C1249      C1263   1.444       .  S
C1250      C1255   1.481       .  S
C1250      C1251   1.399       .  A
C1251      C1252   1.400       .  A
C1251      H1270   1.085       .  S
C1252      C1253   1.417       .  A
C1252      C1264   1.444       .  S
C1253      C1254   1.409       .  A
C1254      H1269   1.084       .  S
C1255      C1256   1.400       .  A
C1255      C1260   1.409       .  A
C1256      C1257   1.399       .  A
C1256      H1271   1.085       .  S
C1257      C1258   1.415       .  A
C1257      C1261   1.444       .  S
C1258      C1259   1.407       .  A
C1259      C1260   1.401       .  A
C1259      H1272   1.084       .  S
C1260      C1262   1.443       .  S
C1261      N1265   1.157       .  T
C1262      N1266   1.157       .  T
C1263      N1268   1.157       .  T
C1264      N1267   1.157       .  T
C1273      C1274   1.411       .  A
C1273      C1278   1.402       .  A
C1273      C1287   1.444       .  S
C1274      C1279   1.491       .  S
C1274      C1275   1.403       .  A
C1275      C1276   1.402       .  A
C1275      H1294   1.085       .  S
C1276      C1277   1.417       .  A
C1276      C1288   1.444       .  S
C1277      C1278   1.408       .  A
C1278      H1293   1.084       .  S
C1279      C1280   1.405       .  A
C1279      C1284   1.413       .  A
C1280      C1281   1.402       .  A
C1280      H1295   1.084       .  S
C1281      C1282   1.411       .  A
C1281      C1285   1.443       .  S
C1282      C1283   1.403       .  A
C1283      C1284   1.400       .  A
C1283      H1296   1.085       .  S
C1284      C1286   1.444       .  S
C1285      N1289   1.157       .  T
C1286      N1290   1.157       .  T
C1287      N1292   1.157       .  T
C1288      N1291   1.157       .  T
C1297      C1298   1.413       .  A
C1297      C1302   1.400       .  A
C1297      C1311   1.443       .  S
C1298      C1303   1.486       .  S
C1298      C1299   1.403   1_556  A
C1299      C1300   1.399       .  A
C1299      H1318   1.085       .  S
C1300      C1301   1.410   1_554  A
C1300      C1312   1.444   1_545  S
C1301      C1302   1.401       .  A
C1302      H1317   1.085       .  S
C1303      C1304   1.402   1_556  A
C1303      C1308   1.410       .  A
C1304      C1305   1.400       .  A
C1304      H1319   1.085       .  S
C1305      C1306   1.416       .  A
C1305      C1309   1.444       .  S
C1306      C1307   1.406   1_554  A
C1307      C1308   1.401       .  A
C1307      H1320   1.084       .  S
C1308      C1310   1.444       .  S
C1309      N1313   1.157       .  T
C1310      N1314   1.157       .  T
C1311      N1316   1.157       .  T
C1312      N1315   1.157       .  T
C1321      C1322   1.409       .  A
C1321      C1326   1.403       .  A
C1321      C1335   1.444       .  S
C1322      C1327   1.482       .  S
C1322      C1323   1.400   1_554  A
C1323      C1324   1.398       .  A
C1323      H1342   1.085       .  S
C1324      C1325   1.416   1_556  A
C1324      C1336   1.444       .  S
C1325      C1326   1.407       .  A
C1326      H1341   1.084       .  S
C1327      C1328   1.403   1_554  A
C1327      C1332   1.409       .  A
C1328      C1329   1.402       .  A
C1328      H1343   1.084       .  S
C1329      C1330   1.412   1_556  A
C1329      C1333   1.444   1_545  S
C1330      C1331   1.403       .  A
C1331      C1332   1.398       .  A
C1331      H1344   1.083       .  S
C1332      C1334   1.444       .  S
C1333      N1337   1.157       .  T
C1334      N1338   1.157       .  T
C1335      N1340   1.157       .  T
C1336      N1339   1.157       .  T
C1345      C1346   1.408       .  A
C1345      C1350   1.397       .  A
C1345      C1359   1.445       .  S
C1346      C1351   1.481       .  S
C1346      C1347   1.403       .  A
C1347      C1348   1.403       .  A
C1347      H1366   1.085       .  S
C1348      C1349   1.414       .  A
C1348      C1360   1.444       .  S
C1349      C1350   1.405       .  A
C1350      H1365   1.085       .  S
C1351      C1352   1.401       .  A
C1351      C1356   1.408       .  A
C1352      C1353   1.397       .  A
C1352      H1367   1.085       .  S
C1353      C1354   1.412       .  A
C1353      C1357   1.444       .  S
C1354      C1355   1.407       .  A
C1355      C1356   1.401       .  A
C1355      H1368   1.084       .  S
C1356      C1358   1.444       .  S
C1357      N1361   1.157       .  T
C1358      N1362   1.157       .  T
C1359      N1364   1.157       .  T
C1360      N1363   1.157       .  T
C1369      C1370   1.410       .  A
C1369      C1374   1.400       .  A
C1369      C1383   1.444       .  S
C1370      C1375   1.483       .  S
C1370      C1371   1.402       .  A
C1371      C1372   1.399       .  A
C1371      H1390   1.085       .  S
C1372      C1373   1.413       .  A
C1372      C1384   1.444       .  S
C1373      C1374   1.404       .  A
C1374      H1389   1.085       .  S
C1375      C1376   1.404       .  A
C1375      C1380   1.410       .  A
C1376      C1377   1.400       .  A
C1376      H1391   1.085       .  S
C1377      C1378   1.410       .  A
C1377      C1381   1.443       .  S
C1378      C1379   1.403       .  A
C1379      C1380   1.398       .  A
C1379      H1392   1.085       .  S
C1380      C1382   1.444       .  S
C1381      N1385   1.157       .  T
C1382      N1386   1.157       .  T
C1383      N1388   1.157       .  T
C1384      N1387   1.157       .  T
C1393      C1394   1.410       .  A
C1393      C1398   1.401       .  A
C1393      C1407   1.444       .  S
C1394      C1399   1.484       .  S
C1394      C1395   1.402       .  A
C1395      C1396   1.399       .  A
C1395      H1414   1.085       .  S
C1396      C1397   1.415       .  A
C1396      C1408   1.444       .  S
C1397      C1398   1.406       .  A
C1398      H1413   1.085       .  S
C1399      C1400   1.404       .  A
C1399      C1404   1.411       .  A
C1400      C1401   1.401       .  A
C1400      H1415   1.085       .  S
C1401      C1402   1.411       .  A
C1401      C1405   1.443       .  S
C1402      C1403   1.401       .  A
C1403      C1404   1.397       .  A
C1403      H1416   1.085       .  S
C1404      C1406   1.444       .  S
C1405      N1409   1.157       .  T
C1406      N1410   1.157       .  T
C1407      N1412   1.157       .  T
C1408      N1411   1.157       .  T
C1417      C1418   1.411       .  A
C1417      C1422   1.403       .  A
C1417      C1431   1.444       .  S
C1418      C1423   1.487       .  S
C1418      C1419   1.404       .  A
C1419      C1420   1.400       .  A
C1419      H1438   1.085       .  S
C1420      C1421   1.410       .  A
C1420      C1432   1.443       .  S
C1421      C1422   1.404       .  A
C1422      H1437   1.085       .  S
C1423      C1424   1.402       .  A
C1423      C1428   1.410       .  A
C1424      C1425   1.403       .  A
C1424      H1439   1.085       .  S
C1425      C1426   1.417       .  A
C1425      C1429   1.444       .  S
C1426      C1427   1.406       .  A
C1427      C1428   1.400       .  A
C1427      H1440   1.085       .  S
C1428      C1430   1.444       .  S
C1429      N1433   1.157       .  T
C1430      N1434   1.157       .  T
C1431      N1436   1.157       .  T
C1432      N1435   1.157       .  T
C1441      C1442   1.410       .  A
C1441      C1446   1.401       .  A
C1441      C1455   1.443       .  S
C1442      C1447   1.485       .  S
C1442      C1443   1.402       .  A
C1443      C1444   1.401       .  A
C1443      H1462   1.085       .  S
C1444      C1445   1.414       .  A
C1444      C1456   1.444       .  S
C1445      C1446   1.405       .  A
C1446      H1461   1.084       .  S
C1447      C1448   1.402       .  A
C1447      C1452   1.409       .  A
C1448      C1449   1.403       .  A
C1448      H1463   1.085       .  S
C1449      C1450   1.416       .  A
C1449      C1453   1.444       .  S
C1450      C1451   1.407       .  A
C1451      C1452   1.401       .  A
C1451      H1464   1.084       .  S
C1452      C1454   1.444       .  S
C1453      N1457   1.157       .  T
C1454      N1458   1.157       .  T
C1455      N1460   1.157       .  T
C1456      N1459   1.157       .  T
C1465      C1466   1.413       .  A
C1465      C1470   1.401       .  A
C1465      C1479   1.444       .  S
C1466      C1471   1.489       .  S
C1466      C1467   1.404       .  A
C1467      C1468   1.401       .  A
C1467      H1486   1.085       .  S
C1468      C1469   1.412       .  A
C1468      C1480   1.444       .  S
C1469      C1470   1.405       .  A
C1470      H1485   1.084       .  S
C1471      C1472   1.402       .  A
C1471      C1476   1.411       .  A
C1472      C1473   1.401       .  A
C1472      H1487   1.085       .  S
C1473      C1474   1.417       .  A
C1473      C1477   1.444       .  S
C1474      C1475   1.408       .  A
C1475      C1476   1.402       .  A
C1475      H1488   1.084       .  S
C1476      C1478   1.445       .  S
C1477      N1481   1.157       .  T
C1478      N1482   1.157       .  T
C1479      N1484   1.157       .  T
C1480      N1483   1.157       .  T
C1489      C1490   1.410       .  A
C1489      C1494   1.401       .  A
C1489      C1503   1.444       .  S
C1490      C1495   1.484       .  S
C1490      C1491   1.403       .  A
C1491      C1492   1.397       .  A
C1491      H1510   1.085       .  S
C1492      C1493   1.410       .  A
C1492      C1504   1.444       .  S
C1493      C1494   1.406       .  A
C1494      H1509   1.084       .  S
C1495      C1496   1.402       .  A
C1495      C1500   1.409       .  A
C1496      C1497   1.402       .  A
C1496      H1511   1.085       .  S
C1497      C1498   1.416       .  A
C1497      C1501   1.443       .  S
C1498      C1499   1.406       .  A
C1499      C1500   1.399       .  A
C1499      H1512   1.085       .  S
C1500      C1502   1.445       .  S
C1501      N1505   1.157       .  T
C1502      N1506   1.157       .  T
C1503      N1508   1.157       .  T
C1504      N1507   1.157       .  T
C1513      C1514   1.408       .  A
C1513      C1518   1.400       .  A
C1513      C1527   1.444       .  S
C1514      C1519   1.483       .  S
C1514      C1515   1.401       .  A
C1515      C1516   1.402       .  A
C1515      H1534   1.085       .  S
C1516      C1517   1.418       .  A
C1516      C1528   1.444       .  S
C1517      C1518   1.406       .  A
C1518      H1533   1.084       .  S
C1519      C1520   1.402       .  A
C1519      C1524   1.410       .  A
C1520      C1521   1.400       .  A
C1520      H1535   1.085       .  S
C1521      C1522   1.415       .  A
C1521      C1525   1.445       .  S
C1522      C1523   1.404       .  A
C1523      C1524   1.399       .  A
C1523      H1536   1.084       .  S
C1524      C1526   1.443       .  S
C1525      N1529   1.157       .  T
C1526      N1530   1.157       .  T
C1527      N1532   1.157       .  T
C1528      N1531   1.158       .  T
C1537      C1538   1.407       .  A
C1537      C1542   1.399       .  A
C1537      C1551   1.445       .  S
C1538      C1543   1.477       .  S
C1538      C1539   1.399       .  A
C1539      C1540   1.398       .  A
C1539      H1558   1.085       .  S
C1540      C1541   1.417       .  A
C1540      C1552   1.444       .  S
C1541      C1542   1.408       .  A
C1542      H1557   1.084       .  S
C1543      C1544   1.401       .  A
C1543      C1548   1.409       .  A
C1544      C1545   1.397       .  A
C1544      H1559   1.085       .  S
C1545      C1546   1.410       .  A
C1545      C1549   1.444       .  S
C1546      C1547   1.404       .  A
C1547      C1548   1.398       .  A
C1547      H1560   1.085       .  S
C1548      C1550   1.444       .  S
C1549      N1553   1.157       .  T
C1550      N1554   1.157       .  T
C1551      N1556   1.157       .  T
C1552      N1555   1.157       .  T
C1561      C1562   1.412       .  A
C1561      C1566   1.399       .  A
C1561      C1575   1.444       .  S
C1562      C1567   1.485       .  S
C1562      C1563   1.403       .  A
C1563      C1564   1.400       .  A
C1563      H1582   1.085       .  S
C1564      C1565   1.412       .  A
C1564      C1576   1.443       .  S
C1565      C1566   1.404       .  A
C1566      H1581   1.085       .  S
C1567      C1568   1.402       .  A
C1567      C1572   1.410       .  A
C1568      C1569   1.402       .  A
C1568      H1583   1.085       .  S
C1569      C1570   1.417       .  A
C1569      C1573   1.444       .  S
C1570      C1571   1.406       .  A
C1571      C1572   1.399       .  A
C1571      H1584   1.085       .  S
C1572      C1574   1.444       .  S
C1573      N1577   1.157       .  T
C1574      N1578   1.157       .  T
C1575      N1580   1.157       .  T
C1576      N1579   1.157       .  T
C1585      C1586   1.412   1_556  A
C1585      C1590   1.399       .  A
C1585      C1599   1.444       .  S
C1586      C1591   1.487       .  S
C1586      C1587   1.404       .  A
C1587      C1588   1.401       .  A
C1587      H1606   1.085       .  S
C1588      C1589   1.414       .  A
C1588      C1600   1.445       .  S
C1589      C1590   1.403   1_554  A
C1590      H1605   1.085       .  S
C1591      C1592   1.405       .  A
C1591      C1596   1.413       .  A
C1592      C1593   1.400       .  A
C1592      H1607   1.085       .  S
C1593      C1594   1.409       .  A
C1593      C1597   1.444       .  S
C1594      C1595   1.401       .  A
C1595      C1596   1.399       .  A
C1595      H1608   1.085       .  S
C1596      C1598   1.444       .  S
C1597      N1601   1.157       .  T
C1598      N1602   1.157       .  T
C1599      N1604   1.157       .  T
C1600      N1603   1.157       .  T
C1609      C1610   1.412   1_554  A
C1609      C1614   1.400       .  A
C1609      C1623   1.444       .  S
C1610      C1615   1.489       .  S
C1610      C1611   1.404       .  A
C1611      C1612   1.402       .  A
C1611      H1630   1.085       .  S
C1612      C1613   1.413       .  A
C1612      C1624   1.443       .  S
C1613      C1614   1.404   1_556  A
C1614      H1629   1.085       .  S
C1615      C1616   1.403       .  A
C1615      C1620   1.411   1_556  A
C1616      C1617   1.401       .  A
C1616      H1631   1.085       .  S
C1617      C1618   1.416       .  A
C1617      C1621   1.444       .  S
C1618      C1619   1.406   1_556  A
C1619      C1620   1.401       .  A
C1619      H1632   1.085       .  S
C1620      C1622   1.444       .  S
C1621      N1625   1.157       .  T
C1622      N1626   1.157       .  T
C1623      N1628   1.157       .  T
C1624      N1627   1.157       .  T
C1633      C1634   1.411       .  A
C1633      C1638   1.401       .  A
C1633      C1647   1.444       .  S
C1634      C1639   1.492       .  S
C1634      C1635   1.404       .  A
C1635      C1636   1.403       .  A
C1635      H1654   1.084       .  S
C1636      C1637   1.415       .  A
C1636      C1648   1.444       .  S
C1637      C1638   1.406       .  A
C1638      H1653   1.083       .  S
C1639      C1640   1.403       .  A
C1639      C1644   1.411       .  A
C1640      C1641   1.401       .  A
C1640      H1655   1.085       .  S
C1641      C1642   1.418       .  A
C1641      C1645   1.444       .  S
C1642      C1643   1.408       .  A
C1643      C1644   1.404       .  A
C1643      H1656   1.084       .  S
C1644      C1646   1.444       .  S
C1645      N1649   1.157       .  T
C1646      N1650   1.157       .  T
C1647      N1652   1.157       .  T
C1648      N1651   1.157       .  T
C1657      C1658   1.413       .  A
C1657      C1662   1.400       .  A
C1657      C1671   1.444       .  S
C1658      C1663   1.491       .  S
C1658      C1659   1.405       .  A
C1659      C1660   1.403       .  A
C1659      H1678   1.085       .  S
C1660      C1661   1.411       .  A
C1660      C1672   1.443       .  S
C1661      C1662   1.403       .  A
C1662      H1677   1.085       .  S
C1663      C1664   1.403       .  A
C1663      C1668   1.412       .  A
C1664      C1665   1.400       .  A
C1664      H1679   1.085       .  S
C1665      C1666   1.415       .  A
C1665      C1669   1.444       .  S
C1666      C1667   1.406       .  A
C1667      C1668   1.404       .  A
C1667      H1680   1.085       .  S
C1668      C1670   1.444       .  S
C1669      N1673   1.157       .  T
C1670      N1674   1.157       .  T
C1671      N1676   1.157       .  T
C1672      N1675   1.157       .  T
C1681      C1682   1.410       .  A
C1681      C1686   1.400       .  A
C1681      C1695   1.443       .  S
C1682      C1687   1.484       .  S
C1682      C1683   1.403       .  A
C1683      C1684   1.399       .  A
C1683      H1702   1.085       .  S
C1684      C1685   1.412       .  A
C1684      C1696   1.444       .  S
C1685      C1686   1.405       .  A
C1686      H1701   1.084       .  S
C1687      C1688   1.402       .  A
C1687      C1692   1.408       .  A
C1688      C1689   1.403       .  A
C1688      H1703   1.085       .  S
C1689      C1690   1.418       .  A
C1689      C1693   1.444       .  S
C1690      C1691   1.407       .  A
C1691      C1692   1.400       .  A
C1691      H1704   1.084       .  S
C1692      C1694   1.444       .  S
C1693      N1697   1.157       .  T
C1694      N1698   1.157       .  T
C1695      N1700   1.157       .  T
C1696      N1699   1.157       .  T
C1705      C1706   1.408       .  A
C1705      C1710   1.402       .  A
C1705      C1719   1.444       .  S
C1706      C1711   1.478       .  S
C1706      C1707   1.399       .  A
C1707      C1708   1.399       .  A
C1707      H1726   1.085       .  S
C1708      C1709   1.417       .  A
C1708      C1720   1.444       .  S
C1709      C1710   1.407       .  A
C1710      H1725   1.084       .  S
C1711      C1712   1.401       .  A
C1711      C1716   1.409       .  A
C1712      C1713   1.399       .  A
C1712      H1727   1.085       .  S
C1713      C1714   1.412       .  A
C1713      C1717   1.444       .  S
C1714      C1715   1.403       .  A
C1715      C1716   1.399       .  A
C1715      H1728   1.085       .  S
C1716      C1718   1.443       .  S
C1717      N1721   1.157       .  T
C1718      N1722   1.157       .  T
C1719      N1724   1.157       .  T
C1720      N1723   1.157       .  T
C1729      C1730   1.411       .  A
C1729      C1734   1.398       .  A
C1729      C1743   1.444       .  S
C1730      C1735   1.486       .  S
C1730      C1731   1.405       .  A
C1731      C1732   1.401       .  A
C1731      H1750   1.084       .  S
C1732      C1733   1.411       .  A
C1732      C1744   1.443       .  S
C1733      C1734   1.403       .  A
C1734      H1749   1.085       .  S
C1735      C1736   1.403       .  A
C1735      C1740   1.411       .  A
C1736      C1737   1.400       .  A
C1736      H1751   1.085       .  S
C1737      C1738   1.415       .  A
C1737      C1741   1.444       .  S
C1738      C1739   1.405       .  A
C1739      C1740   1.400       .  A
C1739      H1752   1.085       .  S
C1740      C1742   1.444       .  S
C1741      N1745   1.157       .  T
C1742      N1746   1.157       .  T
C1743      N1748   1.157       .  T
C1744      N1747   1.157       .  T
C1753      C1754   1.412       .  A
C1753      C1758   1.401       .  A
C1753      C1767   1.444       .  S
C1754      C1759   1.488       .  S
C1754      C1755   1.404       .  A
C1755      C1756   1.399       .  A
C1755      H1774   1.085       .  S
C1756      C1757   1.410       .  A
C1756      C1768   1.443       .  S
C1757      C1758   1.404       .  A
C1758      H1773   1.085       .  S
C1759      C1760   1.403       .  A
C1759      C1764   1.411       .  A
C1760      C1761   1.402       .  A
C1760      H1775   1.085       .  S
C1761      C1762   1.418       .  A
C1761      C1765   1.444       .  S
C1762      C1763   1.406       .  A
C1763      C1764   1.399       .  A
C1763      H1776   1.084       .  S
C1764      C1766   1.444       .  S
C1765      N1769   1.157       .  T
C1766      N1770   1.157       .  T
C1767      N1772   1.157       .  T
C1768      N1771   1.157       .  T
C1777      C1778   1.409       .  A
C1777      C1782   1.401       .  A
C1777      C1791   1.444       .  S
C1778      C1783   1.485       .  S
C1778      C1779   1.401       .  A
C1779      C1780   1.402       .  A
C1779      H1798   1.085       .  S
C1780      C1781   1.418       .  A
C1780      C1792   1.444       .  S
C1781      C1782   1.407       .  A
C1782      H1797   1.084       .  S
C1783      C1784   1.403       .  A
C1783      C1788   1.410       .  A
C1784      C1785   1.402       .  A
C1784      H1799   1.085       .  S
C1785      C1786   1.413       .  A
C1785      C1789   1.444   1_565  S
C1786      C1787   1.404       .  A
C1787      C1788   1.399       .  A
C1787      H1800   1.084       .  S
C1788      C1790   1.443       .  S
C1789      N1793   1.157       .  T
C1790      N1794   1.157       .  T
C1791      N1796   1.157   1_565  T
C1792      N1795   1.157       .  T
C1801      C1802   1.410       .  A
C1801      C1806   1.400       .  A
C1801      C1815   1.444       .  S
C1802      C1807   1.485       .  S
C1802      C1803   1.402       .  A
C1803      C1804   1.401       .  A
C1803      H1822   1.085       .  S
C1804      C1805   1.414       .  A
C1804      C1816   1.444   1_565  S
C1805      C1806   1.404       .  A
C1806      H1821   1.084       .  S
C1807      C1808   1.401       .  A
C1807      C1812   1.408       .  A
C1808      C1809   1.401       .  A
C1808      H1823   1.085       .  S
C1809      C1810   1.419       .  A
C1809      C1813   1.445       .  S
C1810      C1811   1.407       .  A
C1811      C1812   1.400       .  A
C1811      H1824   1.084       .  S
C1812      C1814   1.444       .  S
C1813      N1817   1.158       .  T
C1814      N1818   1.157       .  T
C1815      N1820   1.157       .  T
C1816      N1819   1.157       .  T
C1825      C1826   1.408       .  A
C1825      C1830   1.399       .  A
C1825      C1839   1.444       .  S
C1826      C1831   1.478       .  S
C1826      C1827   1.400       .  A
C1827      C1828   1.401       .  A
C1827      H1846   1.085       .  S
C1828      C1829   1.416       .  A
C1828      C1840   1.445       .  S
C1829      C1830   1.405       .  A
C1830      H1845   1.085       .  S
C1831      C1832   1.401       .  A
C1831      C1836   1.409       .  A
C1832      C1833   1.400       .  A
C1832      H1847   1.085       .  S
C1833      C1834   1.411       .  A
C1833      C1837   1.443       .  S
C1834      C1835   1.402       .  A
C1835      C1836   1.399       .  A
C1835      H1848   1.085       .  S
C1836      C1838   1.444       .  S
C1837      N1841   1.157       .  T
C1838      N1842   1.157       .  T
C1839      N1844   1.157       .  T
C1840      N1843   1.157       .  T
C1849      C1850   1.407       .  A
C1849      C1854   1.397       .  A
C1849      C1863   1.444       .  S
C1850      C1855   1.474       .  S
C1850      C1851   1.399       .  A
C1851      C1852   1.399       .  A
C1851      H1870   1.085       .  S
C1852      C1853   1.415       .  A
C1852      C1864   1.444       .  S
C1853      C1854   1.404       .  A
C1854      H1869   1.085       .  S
C1855      C1856   1.400       .  A
C1855      C1860   1.408       .  A
C1856      C1857   1.398       .  A
C1856      H1871   1.085       .  S
C1857      C1858   1.410       .  A
C1857      C1861   1.443       .  S
C1858      C1859   1.402       .  A
C1859      C1860   1.397       .  A
C1859      H1872   1.085       .  S
C1860      C1862   1.444       .  S
C1861      N1865   1.157       .  T
C1862      N1866   1.157       .  T
C1863      N1868   1.157       .  T
C1864      N1867   1.157       .  T
