geometry optimzed in LAMMPS
_audit_creation_date              2020-12-01 
_audit_creation_method            'lammps2cif' 
_symmetry_space_group_name_H-M    'P1' 
_symmetry_Int_Tables_number       1 
_symmetry_cell_setting            triclinic 
loop_ 
_symmetry_equiv_pos_as_xyz 
  x,y,z 
_cell_length_a                    47.44572257 
_cell_length_b                    47.3117785264228 
_cell_length_c                    28.668766976833055 
_cell_angle_alpha                 89.68830382786544 
_cell_angle_beta                  89.99675152733073 
_cell_angle_gamma                 90.15165229884855 
loop_ 
_atom_site_label 
_atom_site_type_symbol 
_atom_site_fract_x 
_atom_site_fract_y 
_atom_site_fract_z 
_atom_site_charge 
O1          O  0.02022175  0.12221415  0.87097298    -0.57200
C2          C  0.49997661  0.20496967  0.93553023     0.75500
O3          O  0.00190617  0.19751484  0.78459651    -0.58300
C4          C  0.01364788  0.11165655  0.83165541     0.77000
C5          C  0.43648209  0.14733172  0.85438323     0.77800
Cd6        Cd  0.49465068  0.16607608  0.85657426     1.37500
O7          O  0.00982246  0.18116989  0.93568447    -0.57100
O8          O  0.45343781  0.14065465  0.88674440    -0.56000
C9          C  0.02854825  0.19521345  0.78678087     0.77800
O10         O  0.44604146  0.16464774  0.82433444    -0.58300
O11         O  0.48450282  0.20951447  0.90042682    -0.56800
O12         O  0.49990766  0.12498372  0.80915090    -0.56800
O13         O  0.03842354  0.18071977  0.82012659    -0.55900
O14         O  0.24780797  0.06265449  0.92668909    -0.57200
C15         C  0.24938318  0.13744956  0.83398903     0.75500
O16         O  0.31466433  0.08397380  0.81774103    -0.58300
C17         C  0.25949384  0.03849056  0.92519654     0.75400
C18         C  0.23362653  0.05397036  0.77735018     0.77800
Cd19       Cd  0.26653624  0.07980915  0.85000461     1.37500
O20         O  0.23982364  0.12409356  0.86931940    -0.57100
O21         O  0.22303297  0.06967050  0.80825592    -0.56000
C22         C  0.32497352  0.09562901  0.85374462     0.77800
O23         O  0.26002089  0.04987462  0.77947930    -0.58300
O24         O  0.26631080  0.12414173  0.80831830    -0.56800
O25         O  0.27443568  0.03411625  0.88946215    -0.56800
O26         O  0.30876138  0.09798644  0.88857247    -0.55900
O27         O  0.26646157  0.43224320  0.08285083    -0.57200
C28         C  0.27314806  0.35962668  0.17877989     0.75500
O29         O  0.25477829  0.44310177  0.23176216    -0.58300
C30         C  0.25254494  0.45514852  0.08476904     0.75400
C31         C  0.19263611  0.39213414  0.15658416     0.77800
Cd32       Cd  0.24944220  0.41382780  0.15974193     1.37500
O33         O  0.28097998  0.37295438  0.14229553    -0.57100
O34         O  0.21074352  0.38661525  0.12553589    -0.56000
C35         C  0.28144445  0.44081568  0.23236271     0.77800
O36         O  0.20038209  0.40939124  0.18797182    -0.58300
O37         O  0.25417126  0.37102808  0.20321259    -0.56800
O38         O  0.23722340  0.45806999  0.12043946    -0.56800
O39         O  0.29256200  0.42687070  0.19977471    -0.55900
O40         O  0.00452499  0.30995325  0.08777670    -0.57200
C41         C  0.99865149  0.38240706  0.18390214     0.75500
O42         O  0.01490814  0.29885963  0.23965206    -0.58300
C43         C  0.01602221  0.28571003  0.08925107     0.75400
C44         C  0.07979333  0.34485233  0.16352205     0.77800
Cd45       Cd  0.02176500  0.32674200  0.16568129     1.37500
O46         O  0.49303084  0.36907523  0.14808509    -0.57100
O47         O  0.06232096  0.35159264  0.13210120    -0.56000
C48         C  0.49027142  0.29906868  0.24048522     0.77800
O49         O  0.07109405  0.32827222  0.19541529    -0.58300
O50         O  0.01291197  0.36830619  0.21306672    -0.56800
O51         O  0.03013921  0.28078497  0.12580782    -0.56800
O52         O  0.47881835  0.31211376  0.20691945    -0.55900
O53         O  0.19240460  0.24810358  0.58600649    -0.57200
C54         C  0.12210336  0.24143214  0.68591879     0.75500
O55         O  0.20626344  0.25788410  0.73672064    -0.58300
C56         C  0.21681084  0.25912254  0.58737756     0.75400
C57         C  0.15714879  0.32136181  0.66078177     0.77800
Cd58       Cd  0.17704885  0.26412668  0.66454709     1.37500
O59         O  0.13478952  0.23358644  0.64907931    -0.57100
O60         O  0.14912169  0.30275769  0.63208535    -0.56000
C61         C  0.20379156  0.23113616  0.73619804     0.77800
O62         O  0.17584850  0.31400351  0.69012564    -0.58300
O63         O  0.13468106  0.25972035  0.71041025    -0.56800
O64         O  0.22230821  0.27284092  0.62409290    -0.56800
O65         O  0.19012233  0.22053640  0.70274188    -0.55900
O66         O  0.07177005  0.00175922  0.58275555    -0.57200
C67         C  0.14262056  0.00834726  0.67492305     0.75500
O68         O  0.05416320  0.49234165  0.74094096    -0.58300
C69         C  0.04414364  0.49264067  0.58948088     0.75400
C70         C  0.10310076  0.43078225  0.66308202     0.77800
Cd71       Cd  0.08344594  0.48795898  0.66819988     1.37500
O72         O  0.12901523  0.01513377  0.63832117    -0.57100
O73         O  0.11161544  0.44998096  0.63552790    -0.56000
C74         C  0.06139123  0.01965188  0.73227750     0.77800
O75         O  0.08418479  0.43761284  0.69226486    -0.58300
O76         O  0.12640451  0.49083142  0.71338852    -0.56800
O77         O  0.03937813  0.47741722  0.62499634    -0.56800
O78         O  0.07675540  0.02992351  0.70042855    -0.55900
O79         O  0.38458171  0.47902551  0.37583408    -0.57200
C80         C  0.46402965  0.00419203  0.43629310     0.75500
O81         O  0.45449893  0.00694305  0.28629805    -0.58300
C82         C  0.37151400  0.48669169  0.33915736     0.75400
C83         C  0.40567757  0.06763050  0.36530202     0.77800
Cd84       Cd  0.42471265  0.01021280  0.35856226     1.37500
O85         O  0.43996646  0.99231928  0.43712750    -0.57100
O86         O  0.40185564  0.04969875  0.39758989    -0.56000
C87         C  0.45365722  0.47474929  0.28741770     0.77800
O88         O  0.41995434  0.05950857  0.33037893    -0.58300
O89         O  0.46951080  0.01840619  0.39989708    -0.56800
O90         O  0.38071454  0.00743216  0.31545795    -0.56800
O91         O  0.43846808  0.46513772  0.32006017    -0.55900
O92         O  0.38679255  0.26471625  0.37990379    -0.57200
C93         C  0.30333599  0.24784004  0.44225392     0.75500
O94         O  0.31173220  0.24503073  0.29526757    -0.58300
C95         C  0.39957168  0.25356995  0.34555128     0.75400
C96         C  0.35490658  0.17910081  0.36638308     0.77800
Cd97       Cd  0.34215741  0.23829188  0.36473562     1.37500
O98         O  0.32853986  0.25687628  0.44374383    -0.57100
O99         O  0.36206288  0.19569785  0.39887974    -0.56000
C100        C  0.31833817  0.27080992  0.28963681     0.77800
O101        O  0.33942104  0.18969637  0.33482429    -0.58300
O102        O  0.29681071  0.23478411  0.40537429    -0.56800
O103        O  0.38597308  0.23534064  0.32269957    -0.56800
O104        O  0.33574233  0.28106968  0.31836206    -0.55900
C105        C  0.37952222  0.13954752  0.40563688    -0.05100
C106        C  0.36551516  0.14941950  0.36545946     0.00800
C107        C  0.36433316  0.13170794  0.32548694    -0.07800
C108        C  0.37829920  0.10545621  0.32698663    -0.05100
C109        C  0.39260529  0.09602126  0.36692714     0.00800
C110        C  0.39299169  0.11314756  0.40725922    -0.07700
C111        C  0.40855670  0.10429507  0.45124201     0.62700
H112        H  0.38013765  0.15291006  0.43613303     0.13400
H113        H  0.37787784  0.09173244  0.29687973     0.13400
C114        C  0.34875378  0.14012523  0.28121853     0.62900
F115        F  0.40887114  0.12549000  0.48436585    -0.22200
F116        F  0.43617198  0.09792103  0.44031043    -0.19600
F117        F  0.39567521  0.08090247  0.47102906    -0.19200
F118        F  0.36086014  0.16416695  0.26211199    -0.19300
F119        F  0.32069487  0.14511253  0.29132616    -0.19600
F120        F  0.34964773  0.11913174  0.24778975    -0.22300
C121        C  0.02407657  0.52018582  0.52313804    -0.05100
C122        C  0.02353755  0.49520481  0.54987177     0.00800
C123        C  0.00584224  0.97157495  0.53583501    -0.07800
C124        C  0.48391837  0.97623588  0.50243160    -0.05100
C125        C  0.48481517  0.00107784  0.47534754     0.00800
C126        C  0.00579387  0.52466165  0.48494771    -0.07700
C127        C  0.00737280  0.55248663  0.45845740     0.62700
H128        H  0.03913508  0.53642262  0.53248826     0.13400
H129        H  0.46813564  0.96050340  0.49403630     0.13400
C130        C  0.50079286  0.94363964  0.56671702     0.62900
F131        F  0.02494625  0.57176957  0.48017927    -0.22200
F132        F  0.98353999  0.06362579  0.45796570    -0.19600
F133        F  0.01774104  0.54791632  0.41408099    -0.19200
F134        F  0.99624279  0.94850475  0.60804513    -0.19300
F135        F  0.52758417  0.43398182  0.56742429    -0.19600
F136        F  0.48122290  0.92534545  0.54745833    -0.22300
C137        C  0.26625252  0.26467395  0.55870795    -0.05100
C138        C  0.23832631  0.25616510  0.54914658     0.00800
C139        C  0.23212919  0.24538673  0.50409691    -0.07800
C140        C  0.25400487  0.24355593  0.47092882    -0.05100
C141        C  0.28197375  0.25181632  0.48049683     0.00800
C142        C  0.28820175  0.26272571  0.52549343    -0.07700
C143        C  0.31770730  0.27221932  0.53906966     0.62700
H144        H  0.27093145  0.27285038  0.59301571     0.13400
H145        H  0.24923528  0.23536493  0.43667386     0.13400
C146        C  0.20266051  0.23588532  0.49030345     0.62900
F147        F  0.31906473  0.28117771  0.58492353    -0.22200
F148        F  0.32601347  0.29458244  0.51094877    -0.19600
F149        F  0.33639405  0.25003216  0.53424503    -0.19200
F150        F  0.18387380  0.25790373  0.49608323    -0.19300
F151        F  0.19454676  0.21304340  0.51751553    -0.19600
F152        F  0.20125246  0.22756503  0.44413626    -0.22300
C153        C  0.11443448  0.35110913  0.65974077    -0.05100
C154        C  0.14402875  0.34971951  0.66094480     0.00800
C155        C  0.15998856  0.37501391  0.66091769    -0.07800
C156        C  0.14563115  0.40099669  0.66182102    -0.05100
C157        C  0.11605407  0.40237633  0.66224554     0.00800
C158        C  0.10006862  0.37712670  0.66014940    -0.07700
C159        C  0.06817620  0.37772900  0.65606008     0.62700
H160        H  0.10259760  0.33150525  0.65876492     0.13400
H161        H  0.15747935  0.42060292  0.66250038     0.13400
C162        C  0.19191447  0.37459167  0.65786110     0.62900
F163        F  0.05698257  0.35097399  0.64968731    -0.22200
F164        F  0.06052971  0.39422510  0.61817623    -0.19600
F165        F  0.05650942  0.38884718  0.69611552    -0.19200
F166        F  0.20015644  0.35859834  0.61998669    -0.19300
F167        F  0.20307745  0.36304436  0.69817800    -0.19600
F168        F  0.20303530  0.40148349  0.65227676    -0.22300
C169        C  0.43416510  0.29188178  0.33320954    -0.05100
C170        C  0.42783206  0.26301084  0.32958625     0.00800
C171        C  0.44646486  0.24512169  0.30447102    -0.07800
C172        C  0.46867389  0.25750640  0.27887202    -0.05100
C173        C  0.47258194  0.28682892  0.27782774     0.00800
C174        C  0.45614966  0.30420707  0.30720937    -0.07700
C175        C  0.46088834  0.33588265  0.30918429     0.62700
H176        H  0.42017206  0.30524888  0.35313893     0.13400
H177        H  0.48170837  0.24453940  0.25654836     0.13400
C178        C  0.44240144  0.21329221  0.30248387     0.62900
F179        F  0.44573279  0.34818453  0.34498139    -0.22200
F180        F  0.45250145  0.34812510  0.26767961    -0.19600
F181        F  0.48915274  0.34155312  0.31643895    -0.19200
F182        F  0.42128976  0.20672675  0.27108118    -0.19300
F183        F  0.43535729  0.20282010  0.34612669    -0.19600
F184        F  0.46682278  0.19985870  0.28831079    -0.22300
C185        C  0.00623042  0.42906165  0.21953789    -0.05100
C186        C  0.48497226  0.40721678  0.20309417     0.00800
C187        C  0.45549195  0.41180102  0.20768225    -0.07800
C188        C  0.44631435  0.43586229  0.23195204    -0.05100
C189        C  0.46523685  0.45504350  0.25226289     0.00800
C190        C  0.49443722  0.45189940  0.24418487    -0.07700
C191        C  0.01811154  0.47159608  0.26942890     0.62700
H192        H  0.02832691  0.42344132  0.22041493     0.13400
H193        H  0.42389939  0.43891492  0.23747512     0.13400
C194        C  0.43257739  0.39199881  0.19000390     0.62900
F195        F  0.04564003  0.46367711  0.26037118    -0.22200
F196        F  0.01342115  0.46924012  0.31690789    -0.19600
F197        F  0.01650549  0.99776325  0.26875753    -0.19200
F198        F  0.41315808  0.38690575  0.22513174    -0.19300
F199        F  0.44245015  0.36615309  0.17534583    -0.19600
F200        F  0.41886623  0.40486155  0.15304653    -0.22300
C201        C  0.31577822  0.43523360  0.29630780    -0.05100
C202        C  0.29946033  0.45351502  0.26865944     0.00800
C203        C  0.30416885  0.48295638  0.27072116    -0.07800
C204        C  0.32620436  0.49308429  0.29885388    -0.05100
C205        C  0.34415915  0.47471150  0.32353721     0.00800
C206        C  0.33818177  0.44530950  0.32401504    -0.07700
C207        C  0.35632061  0.42446614  0.35092898     0.62700
H208        H  0.31178681  0.41273190  0.29388941     0.13400
H209        H  0.32477347  0.01651501  0.31136683     0.13400
C210        C  0.28747566  0.50333965  0.24050644     0.62900
F211        F  0.34654116  0.39699045  0.34669162    -0.22200
F212        F  0.35613336  0.43124976  0.39778482    -0.19600
F213        F  0.38368559  0.42536153  0.33433071    -0.19200
F214        F  0.25021314  0.99873676  0.28217558    -0.19300
F215        F  0.29130477  0.49682681  0.19394871    -0.19600
F216        F  0.29584720  0.53110081  0.24706177    -0.22300
C217        C  0.26701921  0.31346070  0.21693900    -0.05100
C218        C  0.28548933  0.33258843  0.19490453     0.00800
C219        C  0.31495537  0.32820171  0.19804195    -0.07800
C220        C  0.32485906  0.30620028  0.22695153    -0.05100
C221        C  0.30630577  0.28875920  0.25234120     0.00800
C222        C  0.27688390  0.29169982  0.24614690    -0.07700
C223        C  0.25596151  0.27366089  0.27329722     0.62700
H224        H  0.24456224  0.31704114  0.21373959     0.13400
H225        H  0.34730412  0.30335926  0.23197130     0.13400
C226        C  0.33584862  0.34767118  0.17372154     0.62900
F227        F  0.22833667  0.28084739  0.26328656    -0.22200
F228        F  0.26017589  0.27724669  0.32066207    -0.19600
F229        F  0.25951615  0.24551155  0.26212835    -0.19200
F230        F  0.33291163  0.37492659  0.19020838    -0.19300
F231        F  0.33100031  0.34740792  0.12615922    -0.19600
F232        F  0.36345232  0.33936275  0.18121883    -0.22300
C233        C  0.14222687  0.39420180  0.17898753    -0.05100
C234        C  0.16390142  0.37919249  0.15676118     0.00800
C235        C  0.15764741  0.35228751  0.13690353    -0.07800
C236        C  0.13007435  0.34132083  0.14133678    -0.05100
C237        C  0.10865560  0.35659766  0.16318018     0.00800
C238        C  0.11452050  0.38365150  0.18147803    -0.07700
C239        C  0.09127212  0.40154032  0.20235050     0.62700
H240        H  0.14699182  0.41476249  0.19345467     0.13400
H241        H  0.12474751  0.32092477  0.12674026     0.13400
C242        C  0.17962207  0.33501075  0.11112714     0.62900
F243        F  0.10138460  0.42697313  0.21927506    -0.22200
F244        F  0.07855417  0.38708461  0.23877766    -0.19600
F245        F  0.07136939  0.40739324  0.16843564    -0.19200
F246        F  0.20271695  0.33033596  0.13956126    -0.19300
F247        F  0.18796407  0.34927441  0.07119007    -0.19600
F248        F  0.16923907  0.30891875  0.09763771    -0.22300
C249        C  0.18942470  0.00169621  0.70961421    -0.05100
C250        C  0.17043162  0.02013439  0.68750931     0.00800
C251        C  0.17580500  0.04956183  0.68764348    -0.07800
C252        C  0.19820199  0.05975631  0.71510527    -0.05100
C253        C  0.21541345  0.04140406  0.74112585     0.00800
C254        C  0.21191159  0.01183371  0.73671864    -0.07700
C255        C  0.22996829  0.99116136  0.76404052     0.62700
H256        H  0.17821975  0.48023612  0.73289965     0.13400
H257        H  0.20156453  0.08231650  0.71846141     0.13400
C258        C  0.15705460  0.07014607  0.66136790     0.62900
F259        F  0.21458080  0.46390076  0.78225250    -0.22200
F260        F  0.22575454  0.99520976  0.81123743    -0.19600
F261        F  0.25202169  0.49239120  0.77376793    -0.19200
F262        F  0.12994938  0.06907137  0.67900709    -0.19300
F263        F  0.15655463  0.06316050  0.61458903    -0.19600
F264        F  0.16669092  0.09768929  0.66492210    -0.22300
C265        C  0.21095609  0.17221608  0.82447873    -0.05100
C266        C  0.23977138  0.16615467  0.82027800     0.00800
C267        C  0.25768054  0.18582695  0.79687100    -0.07800
C268        C  0.24536415  0.20867569  0.77268196    -0.05100
C269        C  0.21612255  0.21243917  0.77205738     0.00800
C270        C  0.19878894  0.19519401  0.80059105    -0.07700
C271        C  0.16733829  0.20042067  0.80405529     0.62700
H272        H  0.19757084  0.15751742  0.84336144     0.13400
H273        H  0.25832984  0.22259758  0.75151566     0.13400
C274        C  0.28958069  0.18287777  0.79721330     0.62900
F275        F  0.15530349  0.18505463  0.84016310    -0.22200
F276        F  0.15435735  0.19269754  0.76292155    -0.19600
F277        F  0.16238654  0.22878049  0.81218132    -0.19200
F278        F  0.29787440  0.16113231  0.76835473    -0.19300
F279        F  0.29878637  0.17748242  0.84217317    -0.19600
F280        F  0.30270105  0.20738948  0.78180049    -0.22300
C281        C  0.24179898  0.02542643  0.00421149    -0.05100
C282        C  0.25599251  0.01692749  0.96364201     0.00800
C283        C  0.26619567  0.98860584  0.96148422    -0.07800
C284        C  0.27942651  0.47817466  0.02064038    -0.05100
C285        C  0.25484700  0.47759761  0.04796537     0.00800
C286        C  0.23389229  0.49862764  0.04008254    -0.07700
C287        C  0.20684080  0.49990340  0.06845697     0.62700
H288        H  0.23385829  0.04681782  0.00553711     0.13400
H289        H  0.29545467  0.46242623  0.02735434     0.13400
C290        C  0.28075092  0.97691689  0.91842589     0.62900
F291        F  0.18852941  0.52035256  0.05182665    -0.22200
F292        F  0.21304445  0.50647497  0.11427729    -0.19600
F293        F  0.19300449  0.47415737  0.06661985    -0.19200
F294        F  0.30570991  0.99132223  0.91049266    -0.19300
F295        F  0.26326141  0.97963032  0.88011831    -0.19600
F296        F  0.28721769  0.94852303  0.92319310    -0.22300
C297        C  0.07784689  0.24789069  0.72995499    -0.05100
C298        C  0.09438448  0.23005253  0.70189741     0.00800
C299        C  0.08587506  0.20147642  0.69595397    -0.07800
C300        C  0.06281021  0.19122804  0.72223897    -0.05100
C301        C  0.04785076  0.20868696  0.75289265     0.00800
C302        C  0.05472413  0.23765143  0.75572310    -0.07700
C303        C  0.03861144  0.25719302  0.78792451     0.62700
H304        H  0.08406627  0.26981899  0.73342319     0.13400
H305        H  0.05697705  0.16907985  0.72066377     0.13400
C306        C  0.10159588  0.18151673  0.66391104     0.62900
F307        F  0.04865785  0.28467054  0.78571094    -0.22200
F308        F  0.04103060  0.24780093  0.83352996    -0.19600
F309        F  0.01046641  0.25745552  0.77541288    -0.19200
F310        F  0.12918572  0.17862597  0.67862303    -0.19300
F311        F  0.10120126  0.19205619  0.61882931    -0.19600
F312        F  0.08944412  0.15487845  0.66325691    -0.22300
C313        C  0.01942328  0.04349452  0.76334425    -0.05100
C314        C  0.04834778  0.03836815  0.76701936     0.00800
C315        C  0.06474442  0.05400296  0.79910982    -0.07800
C316        C  0.05207283  0.07656854  0.82312812    -0.05100
C317        C  0.02375055  0.08373887  0.81548513     0.00800
C318        C  0.00665362  0.06583710  0.78753085    -0.07700
C319        C  0.47394557  0.06997604  0.78877495     0.62700
H320        H  0.00716551  0.03102757  0.73903343     0.13400
H321        H  0.06470875  0.08992623  0.84551053     0.13400
C322        C  0.09550885  0.04688444  0.80742042     0.62900
F323        F  0.96174019  0.04644498  0.76639297    -0.22200
F324        F  0.97083440  0.09178862  0.74858965    -0.19600
F325        F  0.46231810  0.07906930  0.83033414    -0.19200
F326        F  0.11104969  0.05213281  0.76754811    -0.19300
F327        F  0.09659313  0.51748370  0.82832374    -0.19600
F328        F  0.10691670  0.06270007  0.84328139    -0.22300
C329        C  0.02104739  0.21950340  0.01066729    -0.05100
C330        C  0.50318846  0.22596511  0.97466710     0.00800
C331        C  0.49124047  0.25362749  0.97403084    -0.07800
C332        C  0.99460154  0.27180566  0.01322701    -0.05100
C333        C  0.01263977  0.26454354  0.05030068     0.00800
C334        C  0.02649738  0.23780729  0.04858457    -0.07700
C335        C  0.04732298  0.22834942  0.08583271     0.62700
H336        H  0.03134060  0.19914314  0.00947269     0.13400
H337        H  0.48630607  0.29247198  0.01231915     0.13400
C338        C  0.47423333  0.26478065  0.93290233     0.62900
F339        F  0.05929475  0.20243360  0.07565342    -0.22200
F340        F  0.03374226  0.22572347  0.12832496    -0.19600
F341        F  0.06901085  0.24782974  0.08925626    -0.19200
F342        F  0.45022812  0.24853213  0.92704716    -0.19300
F343        F  0.49046056  0.26412288  0.89283089    -0.19600
F344        F  0.46570624  0.29246039  0.93925282    -0.22300
C345        C  0.39909317  0.11746176  0.89033424    -0.05100
C346        C  0.40746920  0.13468725  0.85244669     0.00800
C347        C  0.38853220  0.13807044  0.81420319    -0.07800
C348        C  0.36223093  0.12410352  0.81574329    -0.05100
C349        C  0.35391190  0.10753966  0.85407029     0.00800
C350        C  0.37261617  0.10400745  0.89204468    -0.07700
C351        C  0.36488807  0.08585945  0.93405381     0.62700
H352        H  0.41339777  0.11479636  0.91941561     0.13400
H353        H  0.34744092  0.12658817  0.78724533     0.13400
C354        C  0.39556032  0.15619493  0.77182162     0.62900
F355        F  0.38781432  0.08122419  0.96295152    -0.22200
F356        F  0.35502239  0.05980230  0.91953291    -0.19600
F357        F  0.34425424  0.09918260  0.95985528    -0.19200
F358        F  0.41929951  0.14574940  0.74992292    -0.19300
F359        F  0.40021393  0.18381758  0.78543237    -0.19600
F360        F  0.37388435  0.15646188  0.73946218    -0.22300
O361        O  0.02037446  0.62375334  0.87909351    -0.57200
C362        C  0.49953214  0.70968002  0.93367025     0.75500
O363        O  0.00566109  0.69806132  0.78592431    -0.58300
C364        C  0.01283361  0.61090660  0.84217876     0.77000
C365        C  0.43635577  0.65220557  0.86071202     0.77800
Cd366      Cd  0.49476828  0.66873403  0.85858650     1.37500
O367        O  0.01123725  0.68616464  0.93397329    -0.57100
O368        O  0.45314126  0.64729655  0.89417364    -0.56000
C369        C  0.03202971  0.69358215  0.78780948     0.77800
O370        O  0.44617764  0.66701350  0.82733195    -0.58300
O371        O  0.48592321  0.71424240  0.89648664    -0.56800
O372        O  0.49586396  0.62529019  0.81471214    -0.56800
O373        O  0.04066815  0.67777388  0.82046988    -0.55900
O374        O  0.25161427  0.56401054  0.94005078    -0.57200
C375        C  0.25066315  0.63711265  0.84355582     0.75500
O376        O  0.31721117  0.58380545  0.83388221    -0.58300
C377        C  0.26451674  0.54049695  0.93833799     0.75400
C378        C  0.23281485  0.55395057  0.79249207     0.77800
Cd379      Cd  0.26815655  0.58043311  0.86194817     1.37500
O380        O  0.24141482  0.62421829  0.87959061    -0.57100
O381        O  0.22333039  0.56913970  0.82504055    -0.56000
C382        C  0.32568159  0.59906391  0.86758057     0.77800
O383        O  0.25937046  0.55046059  0.79122947    -0.58300
O384        O  0.26729667  0.62358331  0.81753997    -0.56800
O385        O  0.27859710  0.53603540  0.90167304    -0.56800
O386        O  0.30799384  0.60370052  0.89965188    -0.55900
O387        O  0.25689394  0.93368509  0.07932432    -0.57200
C388        C  0.26421515  0.86408481  0.18115972     0.75500
O389        O  0.25015696  0.94836869  0.23338176    -0.58300
C390        C  0.24700042  0.95859376  0.08161629     0.75400
C391        C  0.18464182  0.90171574  0.15983993     0.77800
Cd392      Cd  0.24264850  0.91947101  0.16091305     1.37500
O393        O  0.27348536  0.87772660  0.14595012    -0.57100
O394        O  0.20253420  0.89281042  0.13072136    -0.56000
C395        C  0.27664563  0.94447191  0.23359594     0.77800
O396        O  0.19302762  0.92013773  0.18882571    -0.58300
O397        O  0.24459604  0.87562562  0.20400766    -0.56800
O398        O  0.23554567  0.96466222  0.12002781    -0.56800
O399        O  0.28661306  0.93019566  0.20036465    -0.55900
O400        O  0.99840294  0.81727878  0.07756991    -0.57200
C401        C  0.99266538  0.88849558  0.17645201     0.75500
O402        O  0.00649697  0.80412575  0.22851995    -0.58300
C403        C  0.01062618  0.79341101  0.07974811     0.75400
C404        C  0.07290174  0.85163348  0.15824080     0.77800
Cd405      Cd  0.01460471  0.83330737  0.15661096     1.37500
O406        O  0.49246339  0.87880300  0.13757455    -0.57100
O407        O  0.05539185  0.86020240  0.12803111    -0.56000
C408        C  0.48071810  0.80699592  0.22861871     0.77800
O409        O  0.06374168  0.83324409  0.18690017    -0.58300
O410        O  0.00454718  0.87267775  0.20616204    -0.56800
O411        O  0.02422009  0.78871317  0.11685689    -0.56800
O412        O  0.47141476  0.82021980  0.19343004    -0.55900
O413        O  0.19304897  0.74611564  0.59175028    -0.57200
C414        C  0.12697074  0.73950669  0.69030021     0.75500
O415        O  0.21286903  0.75754916  0.74250765    -0.58300
C416        C  0.21804468  0.75555713  0.59074686     0.75400
C417        C  0.16331060  0.82091203  0.67126133     0.77800
Cd418      Cd  0.18167262  0.76302434  0.67202206     1.37500
O419        O  0.14141677  0.73056225  0.65610872    -0.57100
O420        O  0.15422504  0.80262449  0.64293456    -0.56000
C421        C  0.20683247  0.73155610  0.74755836     0.77800
O422        O  0.18267426  0.81306174  0.69894700    -0.58300
O423        O  0.13737305  0.75981327  0.71317927    -0.56800
O424        O  0.22572731  0.76852326  0.62711984    -0.56800
O425        O  0.19062703  0.72084594  0.71755190    -0.55900
O426        O  0.06736561  0.50612223  0.59003905    -0.57200
C427        C  0.13884412  0.50979448  0.68979197     0.75500
O428        O  0.05720502  0.99316125  0.73152241    -0.58300
C429        C  0.04821534  0.98896425  0.58395140     0.75400
C430        C  0.10787287  0.92922445  0.66621682     0.77800
Cd431      Cd  0.08751145  0.98588464  0.66132037     1.37500
O432        O  0.12602686  0.51851260  0.65343986    -0.57100
O433        O  0.11450389  0.94585688  0.63326482    -0.56000
C434        C  0.05742010  0.51895997  0.74303034     0.77800
O435        O  0.09003180  0.93809804  0.69566693    -0.58300
O436        O  0.13081659  0.99114893  0.70264847    -0.56800
O437        O  0.04356330  0.97432834  0.62014861    -0.56800
O438        O  0.07125669  0.53048075  0.71040832    -0.55900
O439        O  0.38345109  0.97821430  0.37317023    -0.57200
C440        C  0.46536433  0.50609797  0.43547677     0.75500
O441        O  0.45762996  0.50133382  0.28676166    -0.58300
C442        C  0.36957665  0.98740826  0.33832197     0.75400
C443        C  0.40790647  0.56768268  0.35726473     0.77800
Cd444      Cd  0.42664146  0.50951633  0.35688654     1.37500
O445        O  0.44145718  0.49389836  0.43635875    -0.57100
O446        O  0.40580683  0.55156759  0.39246920    -0.56000
C447        C  0.45271213  0.98016864  0.28497016     0.77800
O448        O  0.42015368  0.55740788  0.32178229    -0.58300
O449        O  0.47106363  0.51963960  0.39844610    -0.56800
O450        O  0.38347652  0.50522541  0.31412244    -0.56800
O451        O  0.43904407  0.96821195  0.31736452    -0.55900
O452        O  0.37663599  0.76844170  0.36877945    -0.57200
C453        C  0.29867716  0.74302558  0.43699650     0.75500
O454        O  0.30187805  0.74397652  0.28769306    -0.58300
C455        C  0.39024913  0.75877491  0.33414350     0.75400
C456        C  0.35385693  0.67833204  0.35538683     0.77800
Cd457      Cd  0.33509481  0.73659760  0.35562092     1.37500
O458        O  0.32374606  0.75238467  0.43636678    -0.57100
O459        O  0.36005161  0.69557604  0.38749221    -0.56000
C460        C  0.30713087  0.77029196  0.28520049     0.77800
O461        O  0.33681590  0.68755815  0.32477337    -0.58300
O462        O  0.29106624  0.73019191  0.40042254    -0.56800
O463        O  0.37862931  0.73901400  0.31172143    -0.56800
O464        O  0.32418688  0.78003149  0.31489358    -0.55900
C465        C  0.38288379  0.64105211  0.39332216    -0.05100
C466        C  0.36686950  0.64943818  0.35422981     0.00800
C467        C  0.36566118  0.63101063  0.31510014    -0.07800
C468        C  0.37982258  0.60480455  0.31746132    -0.05100
C469        C  0.39528012  0.59645504  0.35689922     0.00800
C470        C  0.39736025  0.61512750  0.39519827    -0.07700
C471        C  0.41592118  0.60845027  0.43697934     0.62700
H472        H  0.38421698  0.65515019  0.42283782     0.13400
H473        H  0.37861319  0.59026285  0.28848766     0.13400
C474        C  0.35005879  0.63877983  0.27059220     0.62900
F475        F  0.41881617  0.63143121  0.46631168    -0.22200
F476        F  0.44252546  0.60104607  0.42173416    -0.19600
F477        F  0.40444151  0.58643371  0.46260652    -0.19200
F478        F  0.36105156  0.66356395  0.25222842    -0.19300
F479        F  0.32167979  0.64217393  0.27998778    -0.19600
F480        F  0.35251919  0.61810600  0.23684734    -0.22300
C481        C  0.02773060  0.01712297  0.51931922    -0.05100
C482        C  0.02695106  0.99209697  0.54582679     0.00800
C483        C  0.00372641  0.47373402  0.53778762    -0.07800
C484        C  0.48447191  0.47937980  0.50319795    -0.05100
C485        C  0.48572615  0.50381285  0.47524299     0.00800
C486        C  0.00825205  0.02269536  0.48336527    -0.07700
C487        C  0.00977026  0.05096007  0.45803315     0.62700
H488        H  0.04373523  0.03268428  0.52744799     0.13400
H489        H  0.46885587  0.46348863  0.49476006     0.13400
C490        C  0.50145386  0.44686690  0.56726129     0.62900
F491        F  0.02845163  0.06942425  0.47920582    -0.22200
F492        F  0.98085305  0.56439262  0.45563442    -0.19600
F493        F  0.01872533  0.04696133  0.41266900    -0.19200
F494        F  0.99360823  0.44912250  0.60844697    -0.19300
F495        F  0.52660885  0.93011019  0.56685058    -0.19600
F496        F  0.48248493  0.42826298  0.54718454    -0.22300
C497        C  0.26471637  0.76435949  0.55375714    -0.05100
C498        C  0.23778758  0.75193989  0.55016828     0.00800
C499        C  0.23112154  0.73669021  0.50893506    -0.07800
C500        C  0.25177359  0.73434690  0.47368489    -0.05100
C501        C  0.27876445  0.74668168  0.47738343     0.00800
C502        C  0.28527322  0.76221014  0.51838995    -0.07700
C503        C  0.31356606  0.77674346  0.52544377     0.62700
H504        H  0.26971225  0.77603462  0.58502259     0.13400
H505        H  0.24678706  0.72267675  0.44240597     0.13400
C506        C  0.20251637  0.72284143  0.50142517     0.62900
F507        F  0.31495523  0.79094790  0.56749453    -0.22200
F508        F  0.31802420  0.79638263  0.49027499    -0.19600
F509        F  0.33489601  0.75687505  0.52530238    -0.19200
F510        F  0.18159302  0.74313818  0.50238543    -0.19300
F511        F  0.19764722  0.70282777  0.53586076    -0.19600
F512        F  0.20079786  0.70928236  0.45882569    -0.22300
C513        C  0.12059479  0.85018179  0.67292294    -0.05100
C514        C  0.15021273  0.84923152  0.67297640     0.00800
C515        C  0.16585045  0.87477120  0.67288495    -0.07800
C516        C  0.15105323  0.90051022  0.67065272    -0.05100
C517        C  0.12145460  0.90133790  0.67049760     0.00800
C518        C  0.10586159  0.87591523  0.67264232    -0.07700
C519        C  0.07388454  0.87601835  0.67370989     0.62700
H520        H  0.10901304  0.83041186  0.67359929     0.13400
H521        H  0.16250000  0.92035099  0.66943648     0.13400
C522        C  0.19783287  0.87491205  0.67406129     0.62900
F523        F  0.06280914  0.84895038  0.67191524    -0.22200
F524        F  0.06357812  0.89110495  0.63594660    -0.19600
F525        F  0.06470522  0.88841324  0.71453030    -0.19200
F526        F  0.20827634  0.85918264  0.63742764    -0.19300
F527        F  0.20709099  0.86344580  0.71576940    -0.19600
F528        F  0.20873485  0.90202060  0.67034660    -0.22300
C529        C  0.41841172  0.80051909  0.31102753    -0.05100
C530        C  0.41719266  0.77115913  0.31753714     0.00800
C531        C  0.43999989  0.75422428  0.30213628    -0.07800
C532        C  0.46161104  0.76693197  0.27543196    -0.05100
C533        C  0.46098105  0.79581326  0.26431116     0.00800
C534        C  0.44011685  0.81323541  0.28477512    -0.07700
C535        C  0.44051215  0.84511611  0.27837565     0.62700
H536        H  0.40118121  0.81328901  0.32388099     0.13400
H537        H  0.47829633  0.75409940  0.26092055     0.13400
C538        C  0.44172315  0.72301904  0.31447024     0.62900
F539        F  0.42241495  0.85833682  0.30917690    -0.22200
F540        F  0.43231748  0.85203537  0.23351337    -0.19600
F541        F  0.46738099  0.85544722  0.28636684    -0.19200
F542        F  0.42165673  0.70788572  0.29009606    -0.19300
F543        F  0.43729231  0.71940623  0.36184044    -0.19600
F544        F  0.46791184  0.71194521  0.30382513    -0.22300
C545        C  0.00264687  0.93242644  0.21769603    -0.05100
C546        C  0.48387094  0.91664660  0.19362749     0.00800
C547        C  0.45532918  0.92575381  0.19036638    -0.07800
C548        C  0.44670792  0.94880536  0.21769937    -0.05100
C549        C  0.46524182  0.96284432  0.24776421     0.00800
C550        C  0.49404283  0.95562688  0.24786039    -0.07700
C551        C  0.01570222  0.96908800  0.27821006     0.62700
H552        H  0.02434556  0.92534245  0.21841212     0.13400
H553        H  0.42464795  0.95480670  0.21784945     0.13400
C554        C  0.43233098  0.91183133  0.16160061     0.62900
F555        F  0.04257541  0.95836918  0.27206521    -0.22200
F556        F  0.00810972  0.96490952  0.32433206    -0.19600
F557        F  0.01506070  0.49953652  0.25596956    -0.19200
F558        F  0.41059169  0.90339625  0.19073777    -0.19300
F559        F  0.44114387  0.88857358  0.13701321    -0.19600
F560        F  0.42191189  0.93140708  0.13002103    -0.22300
C561        C  0.31526488  0.93650429  0.28970796    -0.05100
C562        C  0.29582063  0.95549929  0.27009484     0.00800
C563        C  0.29802085  0.98460214  0.28046526    -0.07800
C564        C  0.32165538  0.99409496  0.30583419    -0.05100
C565        C  0.34228640  0.97527596  0.32260198     0.00800
C566        C  0.33823834  0.94582170  0.31675385    -0.07700
C567        C  0.35876908  0.92440300  0.33679586     0.62700
H568        H  0.31287280  0.91423129  0.28204056     0.13400
H569        H  0.33088645  0.51550591  0.29916353     0.13400
C570        C  0.27617803  0.00554950  0.26321394     0.62900
F571        F  0.35090742  0.89691582  0.32661843    -0.22200
F572        F  0.35963671  0.92698876  0.38480856    -0.19600
F573        F  0.38540747  0.92897000  0.31860757    -0.19200
F574        F  0.25916300  0.50129499  0.25139222    -0.19300
F575        F  0.27443048  0.00467136  0.21508515    -0.19600
F576        F  0.28270062  0.03296853  0.27603447    -0.22300
C577        C  0.25655835  0.81738183  0.21803005    -0.05100
C578        C  0.27564247  0.83649936  0.19725643     0.00800
C579        C  0.30493577  0.83079405  0.19957601    -0.07800
C580        C  0.31405340  0.80735965  0.22594486    -0.05100
C581        C  0.29505318  0.78953268  0.24955684     0.00800
C582        C  0.26574113  0.79383756  0.24415538    -0.07700
C583        C  0.24431804  0.77463059  0.26768223     0.62700
H584        H  0.23423043  0.82182396  0.21537301     0.13400
H585        H  0.33639577  0.80350261  0.23035550     0.13400
C586        C  0.32665956  0.85013836  0.17703810     0.62900
F587        F  0.21692956  0.78352399  0.25972012    -0.22200
F588        F  0.24876555  0.77420513  0.31535885    -0.19600
F589        F  0.24696537  0.74754691  0.25040598    -0.19200
F590        F  0.32459876  0.87699849  0.19550676    -0.19300
F591        F  0.32216225  0.85129244  0.12941943    -0.19600
F592        F  0.35391218  0.84066933  0.18435440    -0.22300
C593        C  0.15219467  0.86245651  0.17828620    -0.05100
C594        C  0.15580050  0.88993700  0.16075901     0.00800
C595        C  0.13249058  0.90469585  0.14239862    -0.07800
C596        C  0.10596514  0.89125536  0.14212617    -0.05100
C597        C  0.10200795  0.86371728  0.16015214     0.00800
C598        C  0.12561128  0.84904518  0.17886114    -0.07700
C599        C  0.12315925  0.81930694  0.19867807     0.62700
H600        H  0.17056145  0.85160495  0.19183083     0.13400
H601        H  0.08794219  0.90243312  0.12811620     0.13400
C602        C  0.13591379  0.93431542  0.12258791     0.62900
F603        F  0.14918308  0.80827615  0.21073208    -0.22200
F604        F  0.11116683  0.80157982  0.16594205    -0.19600
F605        F  0.10669944  0.81959705  0.23847206    -0.19200
F606        F  0.15500572  0.93398531  0.08611938    -0.19300
F607        F  0.14575828  0.95220918  0.15694663    -0.19600
F608        F  0.11069198  0.94504027  0.10598412    -0.22300
C609        C  0.18384264  0.50243493  0.73179945    -0.05100
C610        C  0.16647753  0.52106306  0.70632600     0.00800
C611        C  0.17392219  0.55013240  0.70394762    -0.07800
C612        C  0.19703939  0.55975432  0.73055650    -0.05100
C613        C  0.21313414  0.54132748  0.75827262     0.00800
C614        C  0.20708242  0.51207125  0.75790199    -0.07700
C615        C  0.22405282  0.49143273  0.78723101     0.62700
H616        H  0.18510415  0.97920446  0.70851225     0.13400
H617        H  0.20217752  0.58207313  0.73135311     0.13400
C618        C  0.15708651  0.57115757  0.67513768     0.62900
F619        F  0.22337697  0.96334044  0.75377905    -0.22200
F620        F  0.22202097  0.49855464  0.83384626    -0.19600
F621        F  0.25809123  0.99539430  0.75347517    -0.19200
F622        F  0.12928518  0.57132476  0.68957074    -0.19300
F623        F  0.15837883  0.56374924  0.62859321    -0.19600
F624        F  0.16749118  0.59840190  0.67927192    -0.22300
C625        C  0.21253973  0.67192509  0.83409430    -0.05100
C626        C  0.24127929  0.66580667  0.83009093     0.00800
C627        C  0.25951460  0.68578115  0.80831175    -0.07800
C628        C  0.24761637  0.70955436  0.78612198    -0.05100
C629        C  0.21838581  0.71361825  0.78513593     0.00800
C630        C  0.20072255  0.69568387  0.81220213    -0.07700
C631        C  0.16923980  0.70001575  0.81789608     0.62700
H632        H  0.19879298  0.65707721  0.85201754     0.13400
H633        H  0.26087083  0.72360222  0.76567482     0.13400
C634        C  0.29122407  0.68157361  0.80648011     0.62900
F635        F  0.16251767  0.69950200  0.86485286    -0.22200
F636        F  0.15498119  0.67826696  0.79612552    -0.19600
F637        F  0.16005913  0.72551074  0.79975849    -0.19200
F638        F  0.29784601  0.66147637  0.77344101    -0.19300
F639        F  0.30110162  0.67288299  0.84963559    -0.19600
F640        F  0.30507318  0.70640379  0.79469231    -0.22300
C641        C  0.23818098  0.51877164  0.00430211    -0.05100
C642        C  0.26255210  0.51900394  0.97654789     0.00800
C643        C  0.28397352  0.49873191  0.98565518    -0.07800
C644        C  0.26252902  0.97058728  0.00055520    -0.05100
C645        C  0.24896610  0.97935935  0.04164182     0.00800
C646        C  0.23801111  0.00741696  0.04314955    -0.07700
C647        C  0.22253621  0.01893252  0.08544307     0.62700
H648        H  0.22220094  0.53452887  0.99735038     0.13400
H649        H  0.27057337  0.94923004  0.99931377     0.13400
C650        C  0.31200408  0.49909492  0.95992492     0.62900
F651        F  0.21331568  0.04638146  0.07851364    -0.22200
F652        F  0.24037645  0.01907226  0.12359455    -0.19600
F653        F  0.19905320  0.00246727  0.09486684    -0.19200
F654        F  0.32347939  0.52600252  0.96090249    -0.19300
F655        F  0.30810541  0.49080970  0.91420212    -0.19600
F656        F  0.33136562  0.48090360  0.98007901    -0.22300
C657        C  0.07945839  0.74535617  0.72361390    -0.05100
C658        C  0.09973215  0.72691090  0.70512665     0.00800
C659        C  0.09529826  0.69729432  0.70835171    -0.07800
C660        C  0.07175147  0.68730870  0.73348781    -0.05100
C661        C  0.05245385  0.70582049  0.75432276     0.00800
C662        C  0.05571443  0.73532995  0.74807206    -0.07700
C663        C  0.03520994  0.75615176  0.76945414     0.62700
H664        H  0.08305872  0.76790708  0.72042264     0.13400
H665        H  0.06866519  0.66477261  0.73851628     0.13400
C666        C  0.11575830  0.67628350  0.68721734     0.62900
F667        F  0.04288391  0.78391133  0.76041296    -0.22200
F668        F  0.03431756  0.75240104  0.81732182    -0.19600
F669        F  0.00861210  0.75184296  0.75110175    -0.19200
F670        F  0.14249087  0.68037001  0.70509285    -0.19300
F671        F  0.11646655  0.67987926  0.63934678    -0.19600
F672        F  0.10796131  0.64858954  0.69649412    -0.22300
C673        C  0.01610902  0.54091847  0.78034485    -0.05100
C674        C  0.04525081  0.53655222  0.78030299     0.00800
C675        C  0.06255008  0.55248875  0.81073534    -0.07800
C676        C  0.05053188  0.57516698  0.83539317    -0.05100
C677        C  0.02186068  0.58179929  0.83069721     0.00800
C678        C  0.00393308  0.56288599  0.80622010    -0.07700
C679        C  0.47214887  0.56788388  0.80081085     0.62700
H680        H  0.00285519  0.52795429  0.75822182     0.13400
H681        H  0.06391389  0.58921507  0.85532096     0.13400
C682        C  0.09359929  0.54569809  0.81645695     0.62900
F683        F  0.96030792  0.53925697  0.81635827    -0.22200
F684        F  0.96335489  0.57310945  0.76120676    -0.19600
F685        F  0.46201365  0.57915627  0.84197125    -0.19200
F686        F  0.10786377  0.55095193  0.77531531    -0.19300
F687        F  0.09789470  0.01860261  0.81924052    -0.19600
F688        F  0.10593623  0.56173134  0.85121550    -0.22300
C689        C  0.02367617  0.72968255  0.99973404    -0.05100
C690        C  0.50210482  0.73154827  0.97101398     0.00800
C691        C  0.48056279  0.75151494  0.98109483    -0.07800
C692        C  0.98654586  0.77471549  0.00900482    -0.05100
C693        C  0.00863230  0.77200812  0.04139092     0.00800
C694        C  0.02776740  0.74903901  0.03639793    -0.07700
C695        C  0.05259716  0.74460946  0.06917750     0.62700
H696        H  0.03808879  0.71215866  0.99584952     0.13400
H697        H  0.46850635  0.78617938  0.02579349     0.13400
C698        C  0.45279457  0.75192563  0.95462089     0.62900
F699        F  0.07009114  0.72304581  0.05444353    -0.22200
F700        F  0.04283017  0.73747010  0.11315520    -0.19600
F701        F  0.06868640  0.76899785  0.07147590    -0.19200
F702        F  0.44056867  0.72534568  0.95569404    -0.19300
F703        F  0.45743824  0.76008394  0.90886519    -0.19600
F704        F  0.43377124  0.77073994  0.97374732    -0.22300
C705        C  0.39568733  0.63255143  0.90468692    -0.05100
C706        C  0.40720092  0.64021201  0.86115104     0.00800
C707        C  0.39173777  0.63391045  0.82000309    -0.07800
C708        C  0.36562228  0.61992337  0.82420074    -0.05100
C709        C  0.35414869  0.61235789  0.86763006     0.00800
C710        C  0.36937618  0.61888634  0.90887708    -0.07700
C711        C  0.35844716  0.61117413  0.95718447     0.62700
H712        H  0.40753925  0.63751462  0.93586366     0.13400
H713        H  0.35351727  0.61522301  0.79316957     0.13400
C714        C  0.40259348  0.64134173  0.77162333     0.62900
F715        F  0.37872535  0.61514484  0.99130404    -0.22200
F716        F  0.35049528  0.58303690  0.95848297    -0.19600
F717        F  0.33558217  0.62794778  0.96811048    -0.19200
F718        F  0.42867376  0.62915969  0.76469298    -0.19300
F719        F  0.40474699  0.67036860  0.76697432    -0.19600
F720        F  0.38481817  0.63170313  0.73682356    -0.22300
O721        O  0.52079533  0.12121007  0.87571352    -0.57200
C722        C  0.99923748  0.20584949  0.93443208     0.75500
O723        O  0.50101293  0.19714296  0.78634723    -0.58300
C724        C  0.51412188  0.10996449  0.83699250     0.77000
C725        C  0.93516808  0.14929124  0.85329214     0.77800
Cd726      Cd  0.99366444  0.16714432  0.85501536     1.37500
O727        O  0.51277561  0.18138509  0.93525291    -0.57100
O728        O  0.95232731  0.14190766  0.88493738    -0.56000
C729        C  0.52763065  0.19452180  0.78604374     0.77800
O730        O  0.94468654  0.16680520  0.82346386    -0.58300
O731        O  0.98579275  0.21163823  0.89754008    -0.56800
O732        O  0.99863258  0.12677932  0.80514208    -0.56800
O733        O  0.53836771  0.17941268  0.81786291    -0.55900
O734        O  0.74952265  0.06745591  0.93240192    -0.57200
C735        C  0.74718301  0.14185758  0.84173154     0.75500
O736        O  0.81183112  0.08853302  0.81652476    -0.58300
C737        C  0.75906253  0.04246479  0.92855275     0.75400
C738        C  0.73044802  0.05871448  0.78133192     0.77800
Cd739      Cd  0.76476922  0.08395712  0.85308693     1.37500
O740        O  0.73714275  0.12713393  0.87513806    -0.57100
O741        O  0.72066883  0.07563526  0.81119353    -0.56000
C742        C  0.82359436  0.09834871  0.85277209     0.77800
O743        O  0.75666070  0.05365940  0.78357718    -0.58300
O744        O  0.76507347  0.12988438  0.81593712    -0.56800
O745        O  0.77096089  0.03723088  0.89013514    -0.56800
O746        O  0.80873471  0.09952961  0.88935553    -0.55900
O747        O  0.76387958  0.43168823  0.07764090    -0.57200
C748        C  0.77305941  0.36027417  0.17622159     0.75500
O749        O  0.75475381  0.44201592  0.22969512    -0.58300
C750        C  0.75112711  0.45522706  0.08053100     0.75400
C751        C  0.69166682  0.39324240  0.15325841     0.77800
Cd752      Cd  0.74851514  0.41419580  0.15606942     1.37500
O753        O  0.78029784  0.37334749  0.13915264    -0.57100
O754        O  0.71021977  0.38526954  0.12447905    -0.56000
C755        C  0.78149017  0.44114690  0.22758456     0.77800
O756        O  0.69882545  0.41222769  0.18214378    -0.58300
O757        O  0.75417173  0.37161452  0.20093424    -0.56800
O758        O  0.73716683  0.45904240  0.11747992    -0.56800
O759        O  0.79210046  0.42891352  0.19272913    -0.55900
O760        O  0.50321326  0.30904120  0.08901770    -0.57200
C761        C  0.49738408  0.38005452  0.18790684     0.75500
O762        O  0.51697322  0.29693673  0.23967219    -0.58300
C763        C  0.51492237  0.28489441  0.09043463     0.75400
C764        C  0.57867128  0.34637012  0.15858854     0.77800
Cd765      Cd  0.52145600  0.32577747  0.16642433     1.37500
O766        O  0.99550023  0.37135021  0.14385277    -0.57100
O767        O  0.55929496  0.35305157  0.13042875    -0.56000
C768        C  0.98824719  0.30131490  0.23844994     0.77800
O769        O  0.57207054  0.32845645  0.18999235    -0.58300
O770        O  0.51335709  0.36657075  0.21540668    -0.56800
O771        O  0.52937249  0.28016421  0.12666877    -0.56800
O772        O  0.97793891  0.31358731  0.20312580    -0.55900
O773        O  0.69166070  0.24648328  0.58526286    -0.57200
C774        C  0.62039626  0.24074485  0.68408839     0.75500
O775        O  0.70387037  0.25894434  0.73721244    -0.58300
C776        C  0.71603502  0.25757439  0.58670570     0.75400
C777        C  0.65618222  0.32046850  0.65877748     0.77800
Cd778      Cd  0.67578836  0.26313847  0.66357971     1.37500
O779        O  0.63364377  0.23209976  0.64829545    -0.57100
O780        O  0.64725834  0.30146480  0.63156096    -0.56000
C781        C  0.70165357  0.23220509  0.73871532     0.77800
O782        O  0.67564264  0.31345455  0.68692868    -0.58300
O783        O  0.63270062  0.25953682  0.70789929    -0.56800
O784        O  0.72135508  0.27138825  0.62336977    -0.56800
O785        O  0.68869754  0.22051522  0.70546440    -0.55900
O786        O  0.56840732  0.00209474  0.58757765    -0.57200
C787        C  0.63918879  0.00890454  0.68190169     0.75500
O788        O  0.55637196  0.49205428  0.74265141    -0.58300
C789        C  0.54442707  0.49305582  0.59057445     0.75400
C790        C  0.60266303  0.43015807  0.66170838     0.77800
Cd791      Cd  0.58374838  0.48756280  0.66809076     1.37500
O792        O  0.62568047  0.01544479  0.64507821    -0.57100
O793        O  0.61143214  0.44949853  0.63465843    -0.56000
C794        C  0.55852567  0.01692958  0.73931997     0.77800
O795        O  0.58375669  0.43696695  0.69091416    -0.58300
O796        O  0.62575031  0.49212997  0.71478191    -0.56800
O797        O  0.53985610  0.47755470  0.62582464    -0.56800
O798        O  0.57277891  0.02819195  0.70697202    -0.55900
O799        O  0.88759309  0.47628891  0.36732478    -0.57200
C800        C  0.96635272  0.00548881  0.43435723     0.75500
O801        O  0.95643686  0.00705486  0.28555072    -0.58300
C802        C  0.87297947  0.48606050  0.33378201     0.75400
C803        C  0.90889730  0.06951573  0.36389819     0.77800
Cd804      Cd  0.92674953  0.01170723  0.35741945     1.37500
O805        O  0.94207258  0.99408505  0.43588370    -0.57100
O806        O  0.90402375  0.05143256  0.39555291    -0.56000
C807        C  0.95564157  0.47792899  0.28090745     0.77800
O808        O  0.92368212  0.06125590  0.32962324    -0.58300
O809        O  0.97187349  0.01942978  0.39770720    -0.56800
O810        O  0.88317533  0.00897981  0.31303214    -0.56800
O811        O  0.94133224  0.46719305  0.31365896    -0.55900
O812        O  0.88580206  0.26540590  0.38200442    -0.57200
C813        C  0.80278217  0.24730026  0.44171804     0.75500
O814        O  0.81254353  0.24573438  0.29259652    -0.58300
C815        C  0.89877401  0.25567509  0.34670254     0.75400
C816        C  0.85687138  0.18034210  0.36519794     0.77800
Cd817      Cd  0.84178320  0.23890090  0.36403922     1.37500
O818        O  0.82720476  0.25830303  0.44198035    -0.57100
O819        O  0.86474381  0.19742285  0.39650958    -0.56000
C820        C  0.81849195  0.27177105  0.28822659     0.77800
O821        O  0.83948482  0.18988147  0.33543836    -0.58300
O822        O  0.79704759  0.23274472  0.40602414    -0.56800
O823        O  0.88565865  0.23799128  0.32197381    -0.56800
O824        O  0.83474773  0.28208667  0.31867247    -0.55900
C825        C  0.87906103  0.13983332  0.40551122    -0.05100
C826        C  0.86857704  0.15121518  0.36360348     0.00800
C827        C  0.87223116  0.13587198  0.32154861    -0.07800
C828        C  0.88635897  0.10973309  0.32333242    -0.05100
C829        C  0.89639386  0.09822881  0.36539014     0.00800
C830        C  0.89282912  0.11357311  0.40735045    -0.07700
C831        C  0.90414996  0.10290829  0.45379129     0.62700
H832        H  0.87628965  0.15177583  0.43728301     0.13400
H833        H  0.88902850  0.09757324  0.29175358     0.13400
C834        C  0.86155568  0.14681462  0.27485095     0.62900
F835        F  0.90229054  0.12320027  0.48828411    -0.22200
F836        F  0.93222292  0.09567268  0.44914861    -0.19600
F837        F  0.88885664  0.07959127  0.46842919    -0.19200
F838        F  0.87260957  0.17336889  0.26579110    -0.19300
F839        F  0.83244220  0.14818080  0.27568534    -0.19600
F840        F  0.86922619  0.12939214  0.23836542    -0.22300
C841        C  0.52463678  0.52041321  0.52385882    -0.05100
C842        C  0.52361590  0.49580467  0.55148177     0.00800
C843        C  0.50293075  0.97123646  0.53950911    -0.07800
C844        C  0.98645628  0.97704761  0.49953288    -0.05100
C845        C  0.98738182  0.00203886  0.47283229     0.00800
C846        C  0.50621146  0.52485044  0.48587308    -0.07700
C847        C  0.50863455  0.55213173  0.45798133     0.62700
H848        H  0.54023627  0.53632785  0.53225217     0.13400
H849        H  0.97042772  0.96152820  0.49131862     0.13400
C850        C  0.00396019  0.94368103  0.56226763     0.62900
F851        F  0.52717079  0.57109491  0.47826146    -0.22200
F852        F  0.47990927  0.06249895  0.46114237    -0.19600
F853        F  0.51839366  0.54635057  0.41361360    -0.19200
F854        F  0.49251225  0.94900940  0.61205760    -0.19300
F855        F  0.02920273  0.43336135  0.56311219    -0.19600
F856        F  0.98411711  0.92565975  0.54307203    -0.22300
C857        C  0.76568376  0.26280028  0.55859209    -0.05100
C858        C  0.73768283  0.25468157  0.54859648     0.00800
C859        C  0.73152805  0.24440243  0.50319394    -0.07800
C860        C  0.75341260  0.24296648  0.46997386    -0.05100
C861        C  0.78139201  0.25091211  0.47995055     0.00800
C862        C  0.78769745  0.26095345  0.52544847    -0.07700
C863        C  0.81743535  0.26927733  0.53972734     0.62700
H864        H  0.77038255  0.27051076  0.59319213     0.13400
H865        H  0.74867178  0.23534961  0.43533776     0.13400
C866        C  0.70211069  0.23495376  0.48910912     0.62900
F867        F  0.81909039  0.27634495  0.58645911    -0.22200
F868        F  0.82617600  0.29249987  0.51397465    -0.19600
F869        F  0.83562916  0.24694009  0.53232519    -0.19200
F870        F  0.68327227  0.25688809  0.49522340    -0.19300
F871        F  0.69402587  0.21191786  0.51588716    -0.19600
F872        F  0.70079887  0.22692307  0.44278814    -0.22300
C873        C  0.61361341  0.35036322  0.65922963    -0.05100
C874        C  0.64320459  0.34888377  0.65879620     0.00800
C875        C  0.65923828  0.37411976  0.65738012    -0.07800
C876        C  0.64497517  0.40014850  0.65821046    -0.05100
C877        C  0.61542376  0.40165028  0.66038529     0.00800
C878        C  0.59933062  0.37641770  0.66001699    -0.07700
C879        C  0.56735674  0.37699427  0.65844696     0.62700
H880        H  0.60171337  0.33078516  0.65949968     0.13400
H881        H  0.65691404  0.41970538  0.65786522     0.13400
C882        C  0.69113582  0.37360813  0.65356799     0.62900
F883        F  0.55600783  0.35021250  0.65313699    -0.22200
F884        F  0.55858906  0.39339262  0.62112675    -0.19600
F885        F  0.55687218  0.38816819  0.69934647    -0.19200
F886        F  0.69912578  0.35660765  0.61676398    -0.19300
F887        F  0.70260045  0.36317305  0.69447443    -0.19600
F888        F  0.70218219  0.40033467  0.64573895    -0.22300
C889        C  0.92843269  0.29604354  0.32560700    -0.05100
C890        C  0.92633723  0.26672159  0.33103817     0.00800
C891        C  0.94791295  0.24910733  0.31307098    -0.07800
C892        C  0.96960984  0.26154413  0.28620918    -0.05100
C893        C  0.96949901  0.29054441  0.27578877     0.00800
C894        C  0.94936654  0.30831485  0.29741260    -0.07700
C895        C  0.94883597  0.33997377  0.28872826     0.62700
H896        H  0.91180839  0.30913140  0.33971979     0.13400
H897        H  0.98547799  0.24838831  0.27008085     0.13400
C898        C  0.94774187  0.21736119  0.32136067     0.62900
F899        F  0.93095550  0.35364048  0.31936227    -0.22200
F900        F  0.93947581  0.34529879  0.24395485    -0.19600
F901        F  0.97554986  0.35119953  0.29431948    -0.19200
F902        F  0.92640887  0.20483359  0.29592300    -0.19300
F903        F  0.94365950  0.21170189  0.36827561    -0.19600
F904        F  0.97296807  0.20513801  0.30809664    -0.22300
C905        C  0.50382236  0.42780339  0.22000000    -0.05100
C906        C  0.98722547  0.41046395  0.19751664     0.00800
C907        C  0.95812514  0.41780204  0.19599060    -0.07800
C908        C  0.94926561  0.44236207  0.21938001    -0.05100
C909        C  0.96796227  0.45916999  0.24512274     0.00800
C910        C  0.99709182  0.45335531  0.24339030    -0.07700
C911        C  0.51558568  0.47299877  0.26316553     0.62700
H912        H  0.52621486  0.42414733  0.21598161     0.13400
H913        H  0.92696038  0.44733656  0.22058565     0.13400
C914        C  0.93496745  0.40036490  0.17328292     0.62900
F915        F  0.54287086  0.46657449  0.24984608    -0.22200
F916        F  0.51443661  0.47310133  0.31137146    -0.19600
F917        F  0.51467246  0.99959831  0.26777661    -0.19200
F918        F  0.91308473  0.39639626  0.20463050    -0.19300
F919        F  0.94356990  0.37404405  0.15885588    -0.19600
F920        F  0.92476818  0.41498217  0.13497413    -0.22300
C921        C  0.81759338  0.43450986  0.28841930    -0.05100
C922        C  0.80018039  0.45321603  0.26358744     0.00800
C923        C  0.80429014  0.48262933  0.26797588    -0.07800
C924        C  0.82686398  0.49238479  0.29537135    -0.05100
C925        C  0.84581362  0.47372381  0.31738986     0.00800
C926        C  0.84040968  0.44419028  0.31561400    -0.07700
C927        C  0.85930197  0.42282124  0.33983847     0.62700
H928        H  0.81397763  0.41204139  0.28429995     0.13400
H929        H  0.82771292  0.01963006  0.30662309     0.13400
C930        C  0.78614302  0.50349681  0.24119609     0.62900
F931        F  0.84991225  0.39535424  0.33351990    -0.22200
F932        F  0.85969083  0.42802325  0.38724835    -0.19600
F933        F  0.88638123  0.42471914  0.32221551    -0.19200
F934        F  0.75284964  0.00415374  0.27559168    -0.19300
F935        F  0.78877086  0.49878979  0.19381139    -0.19600
F936        F  0.79388110  0.53121759  0.24988766    -0.22300
C937        C  0.76815749  0.31263691  0.21026695    -0.05100
C938        C  0.78621721  0.33370162  0.19263393     0.00800
C939        C  0.81559268  0.33153178  0.20043191    -0.07800
C940        C  0.82551358  0.30976715  0.22980722    -0.05100
C941        C  0.80712300  0.28996586  0.25042443     0.00800
C942        C  0.77812674  0.29050723  0.23876917    -0.07700
C943        C  0.75752105  0.26896997  0.25857266     0.62700
H944        H  0.74580488  0.31456191  0.20349051     0.13400
H945        H  0.84771911  0.30864391  0.23837960     0.13400
C946        C  0.83617088  0.35278190  0.17968233     0.62900
F947        F  0.73012126  0.27423959  0.24444119    -0.22200
F948        F  0.75818155  0.26961402  0.30680298    -0.19600
F949        F  0.76474565  0.24225202  0.24342674    -0.19200
F950        F  0.82949164  0.37978893  0.19408610    -0.19300
F951        F  0.83485814  0.35156121  0.13154008    -0.19600
F952        F  0.86367772  0.34733381  0.19304259    -0.22300
C953        C  0.64042299  0.39757022  0.13987555    -0.05100
C954        C  0.66313509  0.38066228  0.15345516     0.00800
C955        C  0.65833574  0.35229378  0.16728150    -0.07800
C956        C  0.63044979  0.34204236  0.16885196    -0.05100
C957        C  0.60749556  0.35883702  0.15506371     0.00800
C958        C  0.61260252  0.38705226  0.13935284    -0.07700
C959        C  0.58901836  0.40636411  0.12282962     0.62700
H960        H  0.64482177  0.41909684  0.12899615     0.13400
H961        H  0.62640079  0.32054207  0.18019837     0.13400
C962        C  0.68263600  0.33312217  0.18081558     0.62900
F963        F  0.59868737  0.43331128  0.11242640    -0.22200
F964        F  0.56875904  0.40866869  0.15726705    -0.19600
F965        F  0.57697158  0.39559597  0.08273444    -0.19200
F966        F  0.69775751  0.34516006  0.21687049    -0.19300
F967        F  0.70020288  0.32939458  0.14285775    -0.19600
F968        F  0.67340841  0.30674070  0.19541851    -0.22300
C969        C  0.68630381  0.00446719  0.71729349    -0.05100
C970        C  0.66630183  0.02200647  0.69559573     0.00800
C971        C  0.67021777  0.05168858  0.69607224    -0.07800
C972        C  0.69279596  0.06288315  0.72208970    -0.05100
C973        C  0.71150242  0.04535629  0.74678932     0.00800
C974        C  0.70894196  0.01563391  0.74305537    -0.07700
C975        C  0.72853027  0.99584535  0.76934776     0.62700
H976        H  0.67767153  0.48055451  0.73458059     0.13400
H977        H  0.69526085  0.08556705  0.72522394     0.13400
C978        C  0.64964377  0.07147027  0.67191776     0.62900
F979        F  0.71401579  0.46519182  0.78485120    -0.22200
F980        F  0.72646011  0.00086516  0.81670777    -0.19600
F981        F  0.75138481  0.49385619  0.77744483    -0.19200
F982        F  0.62301897  0.06812215  0.69083562    -0.19300
F983        F  0.64873991  0.06548560  0.62477123    -0.19600
F984        F  0.65739377  0.09952480  0.67670610    -0.22300
C985        C  0.70826886  0.17614545  0.83218255    -0.05100
C986        C  0.73730048  0.17074854  0.82998788     0.00800
C987        C  0.75515826  0.19055799  0.80705901    -0.07800
C988        C  0.74291355  0.21175499  0.77917195    -0.05100
C989        C  0.71362816  0.21479155  0.77659442     0.00800
C990        C  0.69612512  0.19828792  0.80608442    -0.07700
C991        C  0.66467948  0.20369860  0.80880603     0.62700
H992        H  0.69482276  0.16148469  0.85102129     0.13400
H993        H  0.75623871  0.22519330  0.75771641     0.13400
C994        C  0.78703270  0.18907527  0.80965710     0.62900
F995        F  0.65231184  0.18863808  0.84496326    -0.22200
F996        F  0.65183593  0.19588620  0.76755481    -0.19600
F997        F  0.65996417  0.23214982  0.81647282    -0.19200
F998        F  0.79731126  0.17547125  0.77067808    -0.19300
F999        F  0.79587459  0.17491767  0.84939993    -0.19600
F1000       F  0.79831483  0.21607620  0.81114926    -0.22300
C1001       C  0.74115024  0.02859443  0.00714771    -0.05100
C1002       C  0.75630335  0.02082821  0.96709588     0.00800
C1003       C  0.76808150  0.99310917  0.96549364    -0.07800
C1004       C  0.77828574  0.47851922  0.01711474    -0.05100
C1005       C  0.75337471  0.47747990  0.04348603     0.00800
C1006       C  0.73200644  0.49788155  0.03454994    -0.07700
C1007       C  0.70415820  0.49775813  0.06083705     0.62700
H1008       H  0.73204146  0.04951873  0.00807798     0.13400
H1009       H  0.79448349  0.46305104  0.02449332     0.13400
C1010       C  0.78437926  0.98235977  0.92347226     0.62900
F1011       F  0.68521053  0.51700099  0.04234062    -0.22200
F1012       F  0.70862684  0.50488506  0.10696688    -0.19600
F1013       F  0.69191042  0.47122807  0.05849050    -0.19200
F1014       F  0.80768504  0.99933371  0.91548317    -0.19300
F1015       F  0.76714693  0.98237773  0.88457573    -0.19600
F1016       F  0.79393710  0.95498268  0.92990633    -0.22300
C1017       C  0.57643092  0.24740933  0.72907545    -0.05100
C1018       C  0.59240716  0.22971600  0.69983126     0.00800
C1019       C  0.58292337  0.20157785  0.69223515    -0.07800
C1020       C  0.55998309  0.19132005  0.71880319    -0.05100
C1021       C  0.54599814  0.20839706  0.75120334     0.00800
C1022       C  0.55335910  0.23718822  0.75499491    -0.07700
C1023       C  0.53786122  0.25649228  0.78839391     0.62700
H1024       H  0.58310514  0.26913431  0.73349799     0.13400
H1025       H  0.55367571  0.16933411  0.71634325     0.13400
C1026       C  0.59755874  0.18192512  0.65839060     0.62900
F1027       F  0.54807874  0.28391552  0.78659099    -0.22200
F1028       F  0.54084560  0.24658118  0.83360370    -0.19600
F1029       F  0.50954757  0.25710295  0.77698012    -0.19200
F1030       F  0.62485740  0.17694398  0.67310530    -0.19300
F1031       F  0.59792024  0.19400111  0.61434868    -0.19600
F1032       F  0.58385388  0.15612835  0.65507943    -0.22300
C1033       C  0.51711996  0.04136220  0.77050460    -0.05100
C1034       C  0.54564836  0.03476551  0.77529643     0.00800
C1035       C  0.56217794  0.04891747  0.80898887    -0.07800
C1036       C  0.55053190  0.07231780  0.83228534    -0.05100
C1037       C  0.52287422  0.08119824  0.82296105     0.00800
C1038       C  0.50515145  0.06400511  0.79488672    -0.07700
C1039       C  0.97524946  0.07073351  0.78139572     0.62700
H1040       H  0.50460407  0.02982065  0.74530277     0.13400
H1041       H  0.56355884  0.08491472  0.85525640     0.13400
C1042       C  0.59199081  0.03933370  0.81952809     0.62900
F1043       F  0.45954198  0.04584155  0.77544898    -0.22200
F1044       F  0.47013247  0.09044453  0.75477291    -0.19600
F1045       F  0.96314056  0.07848874  0.82332294    -0.19200
F1046       F  0.60915014  0.04405136  0.78130641    -0.19300
F1047       F  0.59634082  0.51852903  0.82785657    -0.19600
F1048       F  0.60327826  0.05354921  0.85727561    -0.22300
C1049       C  0.51942254  0.21801058  0.01364157    -0.05100
C1050       C  0.00290935  0.22678165  0.97365495     0.00800
C1051       C  0.98959442  0.25379696  0.97490560    -0.07800
C1052       C  0.49557423  0.27160785  0.01259836    -0.05100
C1053       C  0.51172457  0.26366063  0.05163119     0.00800
C1054       C  0.52415042  0.23619710  0.05190737    -0.07700
C1055       C  0.54244557  0.22568094  0.09195666     0.62700
H1056       H  0.52861601  0.19710960  0.01391281     0.13400
H1057       H  0.98426257  0.29213703  0.01438538     0.13400
C1058       C  0.97004874  0.26409701  0.93636938     0.62900
F1059       F  0.55259435  0.19868325  0.08429777    -0.22200
F1060       F  0.52686100  0.22493709  0.13272824    -0.19600
F1061       F  0.56550975  0.24331657  0.09731618    -0.19200
F1062       F  0.94752225  0.24569218  0.93189093    -0.19300
F1063       F  0.98466035  0.26591025  0.89469748    -0.19600
F1064       F  0.95920012  0.29064679  0.94546196    -0.22300
C1065       C  0.90070739  0.11292122  0.87971648    -0.05100
C1066       C  0.90609047  0.13685731  0.85142327     0.00800
C1067       C  0.88392482  0.14750035  0.82281597    -0.07800
C1068       C  0.85774133  0.13330843  0.82293510    -0.05100
C1069       C  0.85255690  0.10987826  0.85179156     0.00800
C1070       C  0.87418221  0.09953078  0.88098022    -0.07700
C1071       C  0.86927451  0.07428313  0.91294193     0.62700
H1072       H  0.91748417  0.10473443  0.90145517     0.13400
H1073       H  0.84062412  0.14093244  0.80131889     0.13400
C1074       C  0.88717460  0.17405372  0.79327101     0.62900
F1075       F  0.89377055  0.06590485  0.93524768    -0.22200
F1076       F  0.85931627  0.05166426  0.88731718    -0.19600
F1077       F  0.84971219  0.08113074  0.94675818    -0.19200
F1078       F  0.90624736  0.16931409  0.75772227    -0.19300
F1079       F  0.89643715  0.19614915  0.82076140    -0.19600
F1080       F  0.86192032  0.18222787  0.77313566    -0.22300
O1081       O  0.52120772  0.62418175  0.87724747    -0.57200
C1082       C  0.99903965  0.71001381  0.93054476     0.75500
O1083       O  0.50438848  0.69916206  0.78854661    -0.58300
C1084       C  0.51237211  0.61153211  0.84091570     0.77000
C1085       C  0.93687941  0.65195491  0.85643534     0.77800
Cd1086     Cd  0.99530813  0.66836040  0.85631048     1.37500
O1087       O  0.51132647  0.68561270  0.93678504    -0.57100
O1088       O  0.95317591  0.64729772  0.89063349    -0.56000
C1089       C  0.53069891  0.69419981  0.78909371     0.77800
O1090       O  0.94725796  0.66624662  0.82292284    -0.58300
O1091       O  0.98525807  0.71396095  0.89336302    -0.56800
O1092       O  0.99799906  0.62473996  0.81341860    -0.56800
O1093       O  0.53956347  0.67795847  0.82099331    -0.55900
O1094       O  0.75089411  0.56464012  0.93689501    -0.57200
C1095       C  0.75028784  0.63853722  0.84290545     0.75500
O1096       O  0.81672642  0.58518158  0.82930001    -0.58300
C1097       C  0.76374459  0.54111467  0.93502715     0.75400
C1098       C  0.73254566  0.55521510  0.78937078     0.77800
Cd1099     Cd  0.76779427  0.58157440  0.85890359     1.37500
O1100       O  0.74104651  0.62502296  0.87830059    -0.57100
O1101       O  0.72291941  0.57007900  0.82219949    -0.56000
C1102       C  0.82544801  0.60024357  0.86305511     0.77800
O1103       O  0.75914902  0.55231516  0.78758333    -0.58300
O1104       O  0.76695030  0.62550505  0.81625875    -0.56800
O1105       O  0.77815741  0.53696591  0.89860606    -0.56800
O1106       O  0.80799028  0.60447930  0.89560298    -0.55900
O1107       O  0.75887667  0.93724720  0.08190700    -0.57200
C1108       C  0.76483530  0.86552127  0.17944226     0.75500
O1109       O  0.75104070  0.95226157  0.23246932    -0.58300
C1110       C  0.74756791  0.96156523  0.08392472     0.75400
C1111       C  0.68519915  0.90489567  0.16119584     0.77800
Cd1112     Cd  0.74340878  0.92157775  0.16189679     1.37500
O1113       O  0.77495473  0.88019459  0.14606858    -0.57100
O1114       O  0.70088540  0.90213663  0.12578399    -0.56000
C1115       C  0.77729361  0.94712549  0.23415751     0.77800
O1116       O  0.69587907  0.91692676  0.19655086    -0.58300
O1117       O  0.74400778  0.87597811  0.20066138    -0.56800
O1118       O  0.73468873  0.96668347  0.12151244    -0.56800
O1119       O  0.78697909  0.93129065  0.20273729    -0.55900
O1120       O  0.49978085  0.81679527  0.08055561    -0.57200
C1121       C  0.49415107  0.88842249  0.17887041     0.75500
O1122       O  0.50730174  0.80397849  0.23119657    -0.58300
C1123       C  0.51216008  0.79300512  0.08217003     0.75400
C1124       C  0.57465960  0.85176817  0.16077899     0.77800
Cd1125     Cd  0.51638413  0.83301467  0.15916635     1.37500
O1126       O  0.99079085  0.87897900  0.13511890    -0.57100
O1127       O  0.55743615  0.85866637  0.12897400    -0.56000
C1128       C  0.97983583  0.80623084  0.22619456     0.77800
O1129       O  0.56530956  0.83439641  0.19097188    -0.58300
O1130       O  0.50630107  0.87279216  0.20854755    -0.56800
O1131       O  0.52611402  0.78808182  0.11891225    -0.56800
O1132       O  0.96992032  0.81946126  0.19145160    -0.55900
O1133       O  0.69292108  0.74630613  0.59113403    -0.57200
C1134       C  0.62559260  0.73903110  0.69015242     0.75500
O1135       O  0.71179851  0.75803448  0.74109461    -0.58300
C1136       C  0.71755155  0.75674620  0.59028371     0.75400
C1137       C  0.66039979  0.82027781  0.67140162     0.77800
Cd1138     Cd  0.68023696  0.76297821  0.67110814     1.37500
O1139       O  0.63974890  0.73034010  0.65540101    -0.57100
O1140       O  0.65146270  0.80195826  0.64299245    -0.56000
C1141       C  0.70589273  0.73205275  0.74665184     0.77800
O1142       O  0.68012143  0.81268804  0.69857770    -0.58300
O1143       O  0.63635982  0.75897044  0.71343303    -0.56800
O1144       O  0.72444597  0.77052002  0.62625960    -0.56800
O1145       O  0.68971154  0.72103298  0.71689115    -0.55900
O1146       O  0.56767248  0.50648193  0.59083450    -0.57200
C1147       C  0.63896728  0.50936676  0.68887335     0.75500
O1148       O  0.55527821  0.99033174  0.73792078    -0.58300
C1149       C  0.54495589  0.98908874  0.58828699     0.75400
C1150       C  0.60474613  0.92850320  0.66847566     0.77800
Cd1151     Cd  0.58451665  0.98520732  0.66600786     1.37500
O1152       O  0.62688261  0.51644101  0.65094523    -0.57100
O1153       O  0.61275550  0.94615411  0.63787821    -0.56000
C1154       C  0.55708538  0.51888868  0.74160198     0.77800
O1155       O  0.58576896  0.93651576  0.69659997    -0.58300
O1156       O  0.62779415  0.99092143  0.70874158    -0.56800
O1157       O  0.54038875  0.97422685  0.62425382    -0.56800
O1158       O  0.56873581  0.53033961  0.70662725    -0.55900
O1159       O  0.88452446  0.98110254  0.37269098    -0.57200
C1160       C  0.96602484  0.50580511  0.43262073     0.75500
O1161       O  0.95827540  0.50468126  0.28091746    -0.58300
C1162       C  0.87125168  0.98982679  0.33686638     0.75400
C1163       C  0.90827047  0.56845722  0.35549864     0.77800
Cd1164     Cd  0.92779548  0.51031375  0.35280648     1.37500
O1165       O  0.94140857  0.49515843  0.43370229    -0.57100
O1166       O  0.90626821  0.55173326  0.38993692    -0.56000
C1167       C  0.95389994  0.98032746  0.28473660     0.77800
O1168       O  0.92102115  0.55894845  0.31990200    -0.58300
O1169       O  0.97274633  0.51817032  0.39493646    -0.56800
O1170       O  0.88319476  0.50723943  0.31266672    -0.56800
O1171       O  0.93995360  0.96894601  0.31737635    -0.55900
O1172       O  0.87735070  0.76720327  0.36760634    -0.57200
C1173       C  0.79857833  0.74492390  0.43707126     0.75500
O1174       O  0.80137553  0.74589811  0.28814075    -0.58300
C1175       C  0.89034617  0.75696956  0.33274330     0.75400
C1176       C  0.85217545  0.67829159  0.35496126     0.77800
Cd1177     Cd  0.83465354  0.73705020  0.35541357     1.37500
O1178       O  0.82366132  0.75429462  0.43614555    -0.57100
O1179       O  0.85803999  0.69526483  0.38764204    -0.56000
C1180       C  0.80795509  0.77189864  0.28497426     0.77800
O1181       O  0.83568857  0.68791782  0.32382408    -0.58300
O1182       O  0.79088546  0.73165601  0.40095370    -0.56800
O1183       O  0.87795253  0.73741603  0.31099656    -0.56800
O1184       O  0.82585373  0.78081904  0.31401801    -0.55900
C1185       C  0.88068468  0.64074849  0.39323107    -0.05100
C1186       C  0.86516794  0.64934418  0.35372063     0.00800
C1187       C  0.86457191  0.63114458  0.31425705    -0.07800
C1188       C  0.87953147  0.60534729  0.31620843    -0.05100
C1189       C  0.89479385  0.59691598  0.35585862     0.00800
C1190       C  0.89556475  0.61503872  0.39505063    -0.07700
C1191       C  0.91298790  0.60801572  0.43801702     0.62700
H1192       H  0.88128569  0.65454568  0.42318748     0.13400
H1193       H  0.87906264  0.59113995  0.28673279     0.13400
C1194       C  0.84863718  0.63864317  0.26994094     0.62900
F1195       F  0.91397788  0.63029587  0.46911247    -0.22200
F1196       F  0.94032906  0.60198539  0.42480873    -0.19600
F1197       F  0.90152759  0.58499793  0.46112746    -0.19200
F1198       F  0.85938914  0.66337540  0.25102920    -0.19300
F1199       F  0.82031252  0.64198107  0.27984633    -0.19600
F1200       F  0.85089652  0.61778527  0.23645403    -0.22300
C1201       C  0.52454683  0.01687233  0.52283184    -0.05100
C1202       C  0.52380935  0.99198759  0.54973798     0.00800
C1203       C  0.50316788  0.47472090  0.54071833    -0.07800
C1204       C  0.98516344  0.47842655  0.49995348    -0.05100
C1205       C  0.98602106  0.50326344  0.47292687     0.00800
C1206       C  0.50528668  0.02205237  0.48632429    -0.07700
C1207       C  0.50637029  0.05035945  0.46111586     0.62700
H1208       H  0.54029229  0.03265989  0.53114457     0.13400
H1209       H  0.97002854  0.46228705  0.49046630     0.13400
C1210       C  0.00269294  0.44543140  0.56307332     0.62900
F1211       F  0.52469122  0.06911958  0.48240443    -0.22200
F1212       F  0.48260885  0.56507017  0.45523875    -0.19600
F1213       F  0.51539917  0.04663967  0.41572320    -0.19200
F1214       F  0.49274110  0.45159528  0.61257357    -0.19300
F1215       F  0.02974896  0.93011447  0.56111190    -0.19600
F1216       F  0.98439918  0.42661477  0.54182941    -0.22300
C1217       C  0.76104029  0.77171945  0.54765414    -0.05100
C1218       C  0.73762970  0.75335372  0.55011026     0.00800
C1219       C  0.73498608  0.73194059  0.51575458    -0.07800
C1220       C  0.75540479  0.73027730  0.48008720    -0.05100
C1221       C  0.77879799  0.74859086  0.47756539     0.00800
C1222       C  0.78178973  0.76969605  0.51240545    -0.07700
C1223       C  0.80647583  0.79024414  0.51272192     0.62700
H1224       H  0.76308626  0.78785842  0.57404249     0.13400
H1225       H  0.75329095  0.71415620  0.45368441     0.13400
C1226       C  0.71125514  0.71030493  0.51680101     0.62900
F1227       F  0.80434376  0.80980259  0.54831293    -0.22200
F1228       F  0.80752091  0.80499289  0.47095985    -0.19600
F1229       F  0.83134725  0.77556267  0.51919255    -0.19200
F1230       F  0.68573663  0.72362566  0.50927480    -0.19300
F1231       F  0.71087924  0.69657449  0.55952835    -0.19600
F1232       F  0.71439207  0.68993177  0.48271022    -0.22300
C1233       C  0.61741781  0.84931406  0.67307488    -0.05100
C1234       C  0.64704706  0.84845535  0.67351569     0.00800
C1235       C  0.66260813  0.87402321  0.67405776    -0.07800
C1236       C  0.64777326  0.89971652  0.67252768    -0.05100
C1237       C  0.61818843  0.90050801  0.67192936     0.00800
C1238       C  0.60260663  0.87502518  0.67299936    -0.07700
C1239       C  0.57060489  0.87501446  0.67269382     0.62700
H1240       H  0.60590187  0.82950515  0.67307535     0.13400
H1241       H  0.65920540  0.91957472  0.67206894     0.13400
C1242       C  0.69459573  0.87425949  0.67481081     0.62900
F1243       F  0.55965821  0.84792580  0.66992187    -0.22200
F1244       F  0.56088057  0.89029807  0.63472046    -0.19600
F1245       F  0.56065559  0.88709232  0.71327957    -0.19200
F1246       F  0.70486882  0.85884850  0.63767317    -0.19300
F1247       F  0.70413137  0.86252538  0.71614085    -0.19600
F1248       F  0.70539956  0.90141860  0.67147019    -0.22300
C1249       C  0.92001383  0.79822683  0.31287517    -0.05100
C1250       C  0.91734253  0.76872362  0.31506509     0.00800
C1251       C  0.93858284  0.75158710  0.29474819    -0.07800
C1252       C  0.96003678  0.76470299  0.26823903    -0.05100
C1253       C  0.96071299  0.79408122  0.26182038     0.00800
C1254       C  0.94145126  0.81125884  0.28649658    -0.07700
C1255       C  0.94308389  0.84326724  0.28398602     0.62700
H1256       H  0.90397063  0.81109379  0.32917846     0.13400
H1257       H  0.97546459  0.75197210  0.25012770     0.13400
C1258       C  0.93877583  0.71968040  0.30112810     0.62900
F1259       F  0.92656889  0.85574625  0.31791134    -0.22200
F1260       F  0.93385748  0.85250124  0.24081625    -0.19600
F1261       F  0.97059750  0.85209658  0.29074969    -0.19200
F1262       F  0.91770638  0.70740292  0.27475434    -0.19300
F1263       F  0.93468328  0.71296191  0.34768091    -0.19600
F1264       F  0.96422295  0.70811458  0.28742830    -0.22300
C1265       C  0.50291173  0.93266974  0.22053499    -0.05100
C1266       C  0.98303830  0.91686243  0.19123435     0.00800
C1267       C  0.95451346  0.92606140  0.18967648    -0.07800
C1268       C  0.94650547  0.94883323  0.21808434    -0.05100
C1269       C  0.96567696  0.96252084  0.24753389     0.00800
C1270       C  0.99438430  0.95491051  0.24649487    -0.07700
C1271       C  0.51485485  0.97110767  0.27880753     0.62700
H1272       H  0.52466831  0.92584540  0.22238443     0.13400
H1273       H  0.92449651  0.95496835  0.21937463     0.13400
C1274       C  0.93098925  0.91234003  0.16183210     0.62900
F1275       F  0.54207330  0.96121364  0.27313974    -0.22200
F1276       F  0.50739638  0.96762891  0.32513866    -0.19600
F1277       F  0.50941355  0.49973383  0.24639626    -0.19200
F1278       F  0.91066031  0.90209808  0.19216031    -0.19300
F1279       F  0.93973154  0.89039926  0.13407179    -0.19600
F1280       F  0.91878449  0.93254017  0.13322993    -0.22300
C1281       C  0.81527737  0.93945317  0.29144718    -0.05100
C1282       C  0.79658665  0.95854111  0.27014019     0.00800
C1283       C  0.79999612  0.98784630  0.27774836    -0.07800
C1284       C  0.82379753  0.99719411  0.30285684    -0.05100
C1285       C  0.84370379  0.97814978  0.32131719     0.00800
C1286       C  0.83872043  0.94870003  0.31742974    -0.07700
C1287       C  0.85893895  0.92710456  0.33784678     0.62700
H1288       H  0.81206869  0.91707881  0.28555220     0.13400
H1289       H  0.83092911  0.51488001  0.29746744     0.13400
C1290       C  0.77942311  0.00909487  0.25741731     0.62900
F1291       F  0.85027416  0.89965122  0.32924043    -0.22200
F1292       F  0.86052759  0.93046261  0.38565996    -0.19600
F1293       F  0.88542228  0.93068631  0.31848565    -0.19200
F1294       F  0.75825256  0.50013455  0.25406665    -0.19300
F1295       F  0.77848777  0.00654542  0.20939406    -0.19600
F1296       F  0.78697425  0.03662332  0.26787759    -0.22300
C1297       C  0.75794786  0.81785020  0.21360092    -0.05100
C1298       C  0.77686419  0.83821131  0.19583036     0.00800
C1299       C  0.80622655  0.83413492  0.20216843    -0.07800
C1300       C  0.81533980  0.81090750  0.22905036    -0.05100
C1301       C  0.79632455  0.79167765  0.24948842     0.00800
C1302       C  0.76715070  0.79448372  0.24025098    -0.07700
C1303       C  0.74571744  0.77396483  0.26050748     0.62700
H1304       H  0.73560280  0.82117802  0.20823511     0.13400
H1305       H  0.83760615  0.80815288  0.23601734     0.13400
C1306       C  0.82789458  0.85485707  0.18303236     0.62900
F1307       F  0.71839293  0.78120557  0.24846031    -0.22200
F1308       F  0.74759102  0.77374290  0.30865916    -0.19600
F1309       F  0.75085583  0.74711594  0.24378771    -0.19200
F1310       F  0.82313953  0.88151655  0.20085162    -0.19300
F1311       F  0.82605270  0.85575455  0.13491958    -0.19600
F1312       F  0.85515916  0.84716801  0.19469399    -0.22300
C1313       C  0.65187028  0.86912838  0.19080114    -0.05100
C1314       C  0.65652070  0.89272696  0.16212696     0.00800
C1315       C  0.63454823  0.90298776  0.13362917    -0.07800
C1316       C  0.60848313  0.88868599  0.13408270    -0.05100
C1317       C  0.60355164  0.86466979  0.16246180     0.00800
C1318       C  0.62578782  0.85475759  0.19165358    -0.07700
C1319       C  0.62260838  0.82904138  0.22316365     0.62700
H1320       H  0.66922245  0.86177397  0.21217579     0.13400
H1321       H  0.59154848  0.89656388  0.11237190     0.13400
C1322       C  0.63843094  0.92951210  0.10421932     0.62900
F1323       F  0.64752241  0.82239686  0.24584871    -0.22200
F1324       F  0.61475831  0.80584801  0.19697920    -0.19600
F1325       F  0.60250154  0.83423356  0.25693079    -0.19200
F1326       F  0.65887435  0.92510242  0.07069892    -0.19300
F1327       F  0.64666959  0.95165301  0.13249308    -0.19600
F1328       F  0.61378277  0.93728449  0.08175546    -0.22300
C1329       C  0.68361020  0.50262183  0.73171097    -0.05100
C1330       C  0.66666260  0.52067584  0.70450764     0.00800
C1331       C  0.67439792  0.54954289  0.69980348    -0.07800
C1332       C  0.69736176  0.55976681  0.72614536    -0.05100
C1333       C  0.71300356  0.54198921  0.75568635     0.00800
C1334       C  0.70669466  0.51280058  0.75750468    -0.07700
C1335       C  0.72311017  0.49290326  0.78901567     0.62700
H1336       H  0.68298265  0.98181004  0.71632390     0.13400
H1337       H  0.70270665  0.58204070  0.72524602     0.13400
C1338       C  0.65799199  0.56968661  0.66868315     0.62900
F1339       F  0.72197047  0.96771910  0.76167151    -0.22200
F1340       F  0.71983791  0.50093389  0.83501992    -0.19600
F1341       F  0.75602185  0.00025067  0.75501641    -0.19200
F1342       F  0.62999768  0.57035359  0.68207132    -0.19300
F1343       F  0.65986076  0.56080413  0.62290126    -0.19600
F1344       F  0.66843028  0.59699839  0.67087250    -0.22300
C1345       C  0.71191560  0.67303529  0.83416789    -0.05100
C1346       C  0.74074706  0.66733610  0.83064135     0.00800
C1347       C  0.75886619  0.68770165  0.80967369    -0.07800
C1348       C  0.74677706  0.71106569  0.78662545    -0.05100
C1349       C  0.71747556  0.71451255  0.78468215     0.00800
C1350       C  0.69990281  0.69651967  0.81181529    -0.07700
C1351       C  0.66839324  0.70060928  0.81759681     0.62700
H1352       H  0.69826567  0.65801053  0.85189339     0.13400
H1353       H  0.76003025  0.72524947  0.76642405     0.13400
C1354       C  0.79066499  0.68423793  0.80924802     0.62900
F1355       F  0.66205557  0.70160001  0.86466562    -0.22200
F1356       F  0.65426861  0.67796969  0.79809271    -0.19600
F1357       F  0.65869051  0.72530932  0.79736763    -0.19200
F1358       F  0.79836553  0.66554701  0.77464169    -0.19300
F1359       F  0.79995630  0.67418371  0.85196906    -0.19600
F1360       F  0.80406386  0.70980283  0.80081283    -0.22300
C1361       C  0.73653151  0.51840045  0.99936537    -0.05100
C1362       C  0.76139687  0.51928057  0.97275652     0.00800
C1363       C  0.78292628  0.49918524  0.98232827    -0.07800
C1364       C  0.76455224  0.97484419  0.00427582    -0.05100
C1365       C  0.74957243  0.98271555  0.04450083     0.00800
C1366       C  0.73732133  0.01023292  0.04565554    -0.07700
C1367       C  0.71995864  0.02061026  0.08675019     0.62700
H1368       H  0.72034139  0.53385847  0.99190425     0.13400
H1369       H  0.77364661  0.95391228  0.00335724     0.13400
C1370       C  0.81113820  0.49979688  0.95719927     0.62900
F1371       F  0.71016340  0.04787259  0.07998280    -0.22200
F1372       F  0.73622839  0.02070789  0.12677510    -0.19600
F1373       F  0.69672579  0.00325394  0.09293636    -0.19200
F1374       F  0.82249874  0.52674172  0.95879726    -0.19300
F1375       F  0.80758485  0.49173266  0.91128902    -0.19600
F1376       F  0.83041243  0.48155313  0.97745072    -0.22300
C1377       C  0.57805202  0.74540023  0.72338335    -0.05100
C1378       C  0.59818430  0.72672560  0.70503745     0.00800
C1379       C  0.59332766  0.69718285  0.70817397    -0.07800
C1380       C  0.56991837  0.68747732  0.73395019    -0.05100
C1381       C  0.55085633  0.70620406  0.75486264     0.00800
C1382       C  0.55411367  0.73564211  0.74769292    -0.07700
C1383       C  0.53326798  0.75667302  0.76753334     0.62700
H1384       H  0.58182832  0.76791103  0.71996473     0.13400
H1385       H  0.56670449  0.66498171  0.73925973     0.13400
C1386       C  0.61307326  0.67595549  0.68592994     0.62900
F1387       F  0.54059320  0.78429551  0.75669644    -0.22200
F1388       F  0.53222241  0.75405307  0.81558035    -0.19600
F1389       F  0.50680437  0.75157073  0.74918142    -0.19200
F1390       F  0.64006655  0.67924457  0.70322281    -0.19300
F1391       F  0.61332741  0.68007186  0.63814856    -0.19600
F1392       F  0.60468772  0.64835555  0.69457457    -0.22300
C1393       C  0.51582839  0.54137971  0.77811660    -0.05100
C1394       C  0.54492271  0.53676179  0.77844437     0.00800
C1395       C  0.56235468  0.55309316  0.80800450    -0.07800
C1396       C  0.55048357  0.57611206  0.83200222    -0.05100
C1397       C  0.52181829  0.58282297  0.82726960     0.00800
C1398       C  0.50379286  0.56380319  0.80317639    -0.07700
C1399       C  0.97204919  0.56526704  0.80543543     0.62700
H1400       H  0.50269199  0.52845347  0.75577634     0.13400
H1401       H  0.56392504  0.59018704  0.85175720     0.13400
C1402       C  0.59342684  0.54629927  0.81331904     0.62900
F1403       F  0.45852407  0.54233245  0.79385187    -0.22200
F1404       F  0.46573626  0.58574421  0.76407754    -0.19600
F1405       F  0.96188605  0.58452984  0.83736125    -0.19200
F1406       F  0.60718829  0.54989460  0.77121651    -0.19300
F1407       F  0.59184684  0.01074241  0.82997437    -0.19600
F1408       F  0.60633942  0.56349037  0.84591328    -0.22300
C1409       C  0.52720669  0.73246426  0.99691744    -0.05100
C1410       C  0.00138435  0.73213117  0.96773653     0.00800
C1411       C  0.98239407  0.75526768  0.97238742    -0.07800
C1412       C  0.48489056  0.77116441  0.01735854    -0.05100
C1413       C  0.50987389  0.77184350  0.04364343     0.00800
C1414       C  0.53174037  0.75247978  0.03251324    -0.07700
C1415       C  0.56015168  0.75322488  0.05693400     0.62700
H1416       H  0.54357936  0.71739656  0.98863231     0.13400
H1417       H  0.97213820  0.79223485  0.01297772     0.13400
C1418       C  0.95740774  0.75945055  0.93984045     0.62900
F1419       F  0.57984537  0.73648765  0.03464544    -0.22200
F1420       F  0.55729515  0.74339652  0.10219033    -0.19600
F1421       F  0.57055479  0.78057618  0.05735184    -0.19200
F1422       F  0.94078184  0.73538163  0.93976323    -0.19300
F1423       F  0.96686496  0.76515391  0.89512988    -0.19600
F1424       F  0.94057216  0.78183271  0.95333794    -0.22300
C1425       C  0.89520529  0.63445903  0.89999710    -0.05100
C1426       C  0.90755775  0.64043972  0.85644783     0.00800
C1427       C  0.89271380  0.63302012  0.81522380    -0.07800
C1428       C  0.86621539  0.61970891  0.81942328    -0.05100
C1429       C  0.85398433  0.61354663  0.86295560     0.00800
C1430       C  0.86870328  0.62120721  0.90422833    -0.07700
C1431       C  0.85718510  0.61488962  0.95271858     0.62700
H1432       H  0.90666338  0.64027385  0.93116998     0.13400
H1433       H  0.85459516  0.61414929  0.78828292     0.13400
C1434       C  0.90489239  0.63814635  0.76689414     0.62900
F1435       F  0.87668798  0.62075961  0.98730570    -0.22200
F1436       F  0.85016714  0.58656565  0.95632538    -0.19600
F1437       F  0.83363142  0.63124826  0.96109853    -0.19200
F1438       F  0.93055911  0.62458771  0.76297943    -0.19300
F1439       F  0.90844667  0.66682124  0.75931033    -0.19600
F1440       F  0.88743049  0.62797723  0.73208259    -0.22300
loop_ 
_geom_bond_atom_site_label_1 
_geom_bond_atom_site_label_2 
_geom_bond_distance 
_geom_bond_site_symmetry_2 
_ccdc_geom_bond_type 
O1            C4   1.274       .  A
O1         Cd726   2.514   1_455  S
C2           O11   1.264       .  A
C2          O727   1.272       .  A
C2          C330   1.510       .  S
O3            C9   1.271       .  A
O3         Cd726   2.502   1_455  S
C4          O732   1.263   1_455  A
C4          C317   1.483       .  S
C5           O10   1.269       .  A
C5            O8   1.267       .  A
C5          C346   1.501       .  S
Cd6          O12   2.392       .  S
Cd6          O11   2.464       .  S
Cd6          O10   2.486       .  S
Cd6           O8   2.448       .  S
Cd6         O721   2.519       .  S
Cd6         O723   2.504       .  S
Cd6         O733   2.433       .  S
Cd6         O727   2.523       .  S
O7          C722   1.273   1_455  A
O7         Cd726   2.528   1_455  S
C9           O13   1.264       .  A
C9          C301   1.476       .  S
O12         C724   1.262       .  A
O13        Cd726   2.431   1_455  S
O14          C17   1.273       .  A
O14         Cd19   2.502       .  S
C15          O24   1.261       .  A
C15          O20   1.274       .  A
C15         C266   1.485       .  S
O16          C22   1.270       .  A
O16         Cd19   2.471       .  S
C17          O25   1.264       .  A
C17         C282   1.507       .  S
C18          O23   1.269       .  A
C18          O21   1.264       .  A
C18         C253   1.477       .  S
Cd19         O26   2.445       .  S
Cd19         O25   2.464       .  S
Cd19         O24   2.408       .  S
Cd19         O20   2.516       .  S
Cd19         O23   2.494       .  S
Cd19         O21   2.434       .  S
C22          O26   1.266       .  A
C22         C349   1.483       .  S
O27          C30   1.272       .  A
O27         Cd32   2.499       .  S
C28          O37   1.264       .  A
C28          O33   1.273       .  A
C28         C218   1.480       .  S
O29          C35   1.270       .  A
O29         Cd32   2.505       .  S
C30          O38   1.263       .  A
C30         C285   1.497       .  S
C31          O36   1.272       .  A
C31          O34   1.266       .  A
C31         C234   1.493       .  S
Cd32         O39   2.426       .  S
Cd32         O38   2.443       .  S
Cd32         O37   2.383       .  S
Cd32         O33   2.501       .  S
Cd32         O36   2.472       .  S
Cd32         O34   2.448       .  S
C35          O39   1.263       .  A
C35         C202   1.476       .  S
O40          C43   1.272       .  A
O40         Cd45   2.511       .  S
C41          O50   1.264   1_655  A
C41         O766   1.273       .  A
C41         C906   1.489       .  S
O42         C768   1.271   1_455  A
O42         Cd45   2.512       .  S
C43          O51   1.265       .  A
C43         C333   1.512       .  S
C44          O49   1.270       .  A
C44          O47   1.264       .  A
C44         C237   1.476       .  S
Cd45         O51   2.495       .  S
Cd45         O50   2.434       .  S
Cd45         O49   2.492       .  S
Cd45         O47   2.447       .  S
Cd45        O772   2.418   1_455  S
Cd45        O766   2.529   1_455  S
O46         C761   1.273       .  A
O46        Cd765   2.509       .  S
C48          O52   1.264       .  A
C48         O762   1.271       .  A
C48         C173   1.475       .  S
O52        Cd765   2.417       .  S
O53          C56   1.269       .  A
O53         Cd58   2.489       .  S
C54          O63   1.266       .  A
C54          O59   1.273       .  A
C54         C298   1.491       .  S
O55          C61   1.271       .  A
O55         Cd58   2.507       .  S
C56          O64   1.266       .  A
C56         C138   1.505       .  S
C57          O62   1.271       .  A
C57          O60   1.266       .  A
C57         C154   1.481       .  S
Cd58         O65   2.412       .  S
Cd58         O64   2.473       .  S
Cd58         O63   2.410       .  S
Cd58         O59   2.509       .  S
Cd58         O62   2.476       .  S
Cd58         O60   2.441       .  S
C61          O65   1.263       .  A
C61         C269   1.475       .  S
O66         C429   1.270   1_545  A
O66        Cd431   2.486   1_545  S
C67          O72   1.272       .  A
C67         O436   1.264   1_545  A
C67         C250   1.477       .  S
O68         C434   1.270       .  A
O68         Cd71   2.516       .  S
C69          O77   1.264       .  A
C69         O426   1.272       .  A
C69         C122   1.503       .  S
C70          O75   1.271       .  A
C70          O73   1.266       .  A
C70         C157   1.480       .  S
Cd71         O77   2.481       .  S
Cd71         O76   2.419       .  S
Cd71         O75   2.477       .  S
Cd71         O73   2.434       .  S
Cd71        O426   2.515       .  S
Cd71        O438   2.425       .  S
Cd71        O432   2.516       .  S
O72        Cd431   2.491   1_545  S
C74          O78   1.263       .  A
C74         O428   1.269   1_545  A
C74         C314   1.474       .  S
O76         C427   1.265       .  A
O78        Cd431   2.427   1_545  S
O79          C82   1.272       .  A
O79        Cd444   2.517       .  S
C80          O89   1.265       .  A
C80          O85   1.271   1_545  A
C80         C125   1.499       .  S
O81         C447   1.270   1_545  A
O81         Cd84   2.513       .  S
C82         O450   1.264       .  A
C82         C205   1.485       .  S
C83          O88   1.271       .  A
C83          O86   1.265       .  A
C83         C109   1.482       .  S
Cd84         O90   2.430       .  S
Cd84         O89   2.464       .  S
Cd84         O85   2.509   1_545  S
Cd84         O88   2.475       .  S
Cd84         O86   2.440       .  S
Cd84        O439   2.505   1_545  S
Cd84        O451   2.416   1_545  S
C87          O91   1.263       .  A
C87         O441   1.271       .  A
C87         C189   1.483       .  S
O90         C442   1.264   1_545  A
O91        Cd444   2.422       .  S
O92          C95   1.274       .  A
O92         Cd97   2.496       .  S
C93         O102   1.265       .  A
C93          O98   1.270       .  A
C93         C141   1.506       .  S
O94         C100   1.268       .  A
O94         Cd97   2.479       .  S
C95         O103   1.262       .  A
C95         C170   1.484       .  S
C96         O101   1.268       .  A
C96          O99   1.267       .  A
C96         C106   1.493       .  S
Cd97        O104   2.435       .  S
Cd97        O103   2.408       .  S
Cd97        O102   2.451       .  S
Cd97         O98   2.519       .  S
Cd97        O101   2.461       .  S
Cd97         O99   2.429       .  S
C100        O104   1.264       .  A
C100        C221   1.478       .  S
C105        C106   1.408       .  A
C105        C110   1.405       .  A
C105        H112   1.082       .  S
C106        C107   1.424       .  A
C107        C108   1.410       .  A
C107        C114   1.520       .  S
C108        C109   1.403       .  A
C108        H113   1.083       .  S
C109        C110   1.416       .  A
C110        C111   1.519       .  S
C111        F115   1.385       .  S
C111        F116   1.382       .  S
C111        F117   1.382       .  S
C114        F118   1.383       .  S
C114        F119   1.384       .  S
C114        F120   1.385       .  S
C121        C122   1.405       .  A
C121        C126   1.412       .  A
C121        H128   1.082       .  S
C122        C483   1.426       .  A
C123        C482   1.423       .  A
C123        C844   1.412   1_455  A
C123        C850   1.521       .  S
C124        C125   1.406   1_565  A
C124        C843   1.414       .  A
C124        H129   1.082       .  S
C125       C1206   1.423       .  A
C126       C1205   1.422   1_455  A
C126        C127   1.518       .  S
C127        F131   1.385       .  S
C127        F133   1.382       .  S
C127        F492   1.382   1_455  S
C130        C843   1.520       .  S
C130        F136   1.385       .  S
C130        F854   1.383       .  S
C130        F495   1.384       .  S
F132        C487   1.383   1_655  S
F134        C850   1.383   1_655  S
F135        C490   1.383       .  S
C137        C138   1.411       .  A
C137        C142   1.415       .  A
C137        H144   1.082       .  S
C138        C139   1.422       .  A
C139        C140   1.411       .  A
C139        C146   1.521       .  S
C140        C141   1.410       .  A
C140        H145   1.081       .  S
C141        C142   1.423       .  A
C142        C143   1.520       .  S
C143        F147   1.385       .  S
C143        F148   1.383       .  S
C143        F149   1.383       .  S
C146        F150   1.383       .  S
C146        F151   1.383       .  S
C146        F152   1.384       .  S
C153        C154   1.406       .  A
C153        C158   1.409       .  A
C153        H160   1.083       .  S
C154        C155   1.414       .  A
C155        C156   1.407       .  A
C155        C162   1.517       .  S
C156        C157   1.405       .  A
C156        H161   1.084       .  S
C157        C158   1.415       .  A
C158        C159   1.518       .  S
C159        F163   1.384       .  S
C159        F164   1.383       .  S
C159        F165   1.382       .  S
C162        F166   1.384       .  S
C162        F167   1.382       .  S
C162        F168   1.385       .  S
C169        C170   1.402       .  A
C169        C174   1.406       .  A
C169        H176   1.083       .  S
C170        C171   1.424       .  A
C171        C172   1.409       .  A
C171        C178   1.519       .  S
C172        C173   1.399       .  A
C172        H177   1.084       .  S
C173        C174   1.416       .  A
C174        C175   1.516       .  S
C175        F179   1.385       .  S
C175        F180   1.380       .  S
C175        F181   1.383       .  S
C178        F182   1.383       .  S
C178        F183   1.384       .  S
C178        F184   1.385       .  S
C185        C906   1.410   1_455  A
C185        C910   1.410   1_455  A
C185        H192   1.083       .  S
C186        C761   1.483       .  S
C186        C187   1.422       .  A
C186        C905   1.409       .  A
C187        C188   1.407       .  A
C187        C194   1.522       .  S
C188        C189   1.404       .  A
C188        H193   1.085       .  S
C189        C190   1.413       .  A
C190        C905   1.411       .  A
C190        C911   1.517       .  S
C191        C910   1.516   1_455  S
C191        F195   1.385       .  S
C191        F196   1.383       .  S
C191        F557   1.383       .  S
C194        F198   1.385       .  S
C194        F199   1.378       .  S
C194        F200   1.382       .  S
F197        C551   1.382       .  S
C201        C202   1.404       .  A
C201        C206   1.411       .  A
C201        H208   1.083       .  S
C202        C203   1.412       .  A
C203        C204   1.405       .  A
C203        C210   1.517       .  S
C204        C205   1.407       .  A
C204        H569   1.083       .  S
C205        C206   1.419       .  A
C206        C207   1.518       .  S
C207        F211   1.385       .  S
C207        F212   1.383       .  S
C207        F213   1.383       .  S
H209        C564   1.083   1_545  S
C210        F215   1.384       .  S
C210        F216   1.385       .  S
C210        F574   1.382       .  S
F214        C570   1.383   1_565  S
C217        C218   1.406       .  A
C217        C222   1.405       .  A
C217        H224   1.083       .  S
C218        C219   1.417       .  A
C219        C220   1.409       .  A
C219        C226   1.518       .  S
C220        C221   1.405       .  A
C220        H225   1.083       .  S
C221        C222   1.414       .  A
C222        C223   1.519       .  S
C223        F227   1.385       .  S
C223        F228   1.384       .  S
C223        F229   1.382       .  S
C226        F230   1.383       .  S
C226        F231   1.383       .  S
C226        F232   1.385       .  S
C233        C234   1.406       .  A
C233        C238   1.407       .  A
C233        H240   1.083       .  S
C234        C235   1.428       .  A
C235        C236   1.412       .  A
C235        C242   1.521       .  S
C236        C237   1.399       .  A
C236        H241   1.083       .  S
C237        C238   1.413       .  A
C238        C239   1.517       .  S
C239        F243   1.384       .  S
C239        F244   1.383       .  S
C239        F245   1.383       .  S
C242        F246   1.383       .  S
C242        F247   1.383       .  S
C242        F248   1.385       .  S
C249        C250   1.405       .  A
C249        C254   1.405       .  A
C249        H616   1.084   1_545  S
C250        C251   1.415       .  A
C251        C252   1.408       .  A
C251        C258   1.518       .  S
C252        C253   1.405       .  A
C252        H257   1.084       .  S
C253        C254   1.415       .  A
C254        C255   1.517   1_545  S
C255        F260   1.382       .  S
C255        F619   1.385       .  S
C255        F621   1.382       .  S
H256        C609   1.083       .  S
C258        F262   1.383       .  S
C258        F263   1.383       .  S
C258        F264   1.384       .  S
F259        C615   1.385       .  S
F261        C615   1.383       .  S
C265        C266   1.403       .  A
C265        C270   1.407       .  A
C265        H272   1.083       .  S
C266        C267   1.424       .  A
C267        C268   1.409       .  A
C267        C274   1.520       .  S
C268        C269   1.399       .  A
C268        H273   1.083       .  S
C269        C270   1.414       .  A
C270        C271   1.517       .  S
C271        F275   1.384       .  S
C271        F276   1.381       .  S
C271        F277   1.384       .  S
C274        F278   1.382       .  S
C274        F279   1.384       .  S
C274        F280   1.385       .  S
C281        C282   1.405   1_554  A
C281        C646   1.412       .  A
C281        H288   1.082       .  S
C282        C283   1.428   1_545  A
C283        C644   1.414   1_556  A
C283        C290   1.522       .  S
C284        C285   1.405       .  A
C284        C643   1.410   1_554  A
C284        H289   1.083       .  S
C285        C286   1.426       .  A
C286        C641   1.411       .  A
C286        C287   1.521       .  S
C287        F291   1.385       .  S
C287        F292   1.383       .  S
C287        F293   1.383       .  S
C290        F294   1.383       .  S
C290        F295   1.382       .  S
C290        F296   1.385       .  S
C297        C298   1.409       .  A
C297        C302   1.406       .  A
C297        H304   1.083       .  S
C298        C299   1.421       .  A
C299        C300   1.412       .  A
C299        C306   1.518       .  S
C300        C301   1.403       .  A
C300        H305   1.084       .  S
C301        C302   1.411       .  A
C302        C303   1.518       .  S
C303        F307   1.385       .  S
C303        F308   1.383       .  S
C303        F309   1.383       .  S
C306        F310   1.382       .  S
C306        F311   1.383       .  S
C306        F312   1.385       .  S
C313        C314   1.398       .  A
C313        C318   1.406       .  A
C313        H320   1.084       .  S
C314        C315   1.415       .  A
C315        C316   1.410       .  A
C315        C322   1.517       .  S
C316        C317   1.404       .  A
C316        H321   1.083       .  S
C317        C318   1.422       .  A
C318       C1039   1.519   1_455  S
C319       C1038   1.518       .  S
C319        F325   1.384       .  S
C319       F1043   1.385       .  S
C319       F1044   1.383       .  S
C322        F326   1.381       .  S
C322        F328   1.384       .  S
C322        F687   1.383       .  S
F323       C1039   1.385       .  S
F324       C1039   1.383       .  S
F327        C682   1.383       .  S
C329        C334   1.417       .  A
C329       C1050   1.408   1_554  A
C329        H336   1.082       .  S
C330        C331   1.428       .  A
C330       C1049   1.407   1_556  A
C331       C1052   1.413   1_556  A
C331        C338   1.522       .  S
C332        C333   1.406   1_655  A
C332       C1051   1.414   1_554  A
C332       H1057   1.082       .  S
C333        C334   1.428       .  A
C334        C335   1.521       .  S
C335        F339   1.385       .  S
C335        F340   1.383       .  S
C335        F341   1.383       .  S
H337       C1052   1.082       .  S
C338        F342   1.383       .  S
C338        F343   1.383       .  S
C338        F344   1.385       .  S
C345        C346   1.411       .  A
C345        C350   1.408       .  A
C345        H352   1.082       .  S
C346        C347   1.426       .  A
C347        C348   1.411       .  A
C347        C354   1.520       .  S
C348        C349   1.402       .  A
C348        H353   1.083       .  S
C349        C350   1.414       .  A
C350        C351   1.520       .  S
C351        F355   1.385       .  S
C351        F356   1.384       .  S
C351        F357   1.382       .  S
C354        F358   1.383       .  S
C354        F359   1.383       .  S
C354        F360   1.385       .  S
O361        C364   1.274       .  A
O361      Cd1086   2.509   1_455  S
C362        O371   1.264       .  A
C362       O1087   1.273       .  A
C362        C690   1.498       .  S
O363        C369   1.271       .  A
O363      Cd1086   2.501   1_455  S
C364       O1092   1.265   1_455  A
C364        C677   1.482       .  S
C365        O370   1.271       .  A
C365        O368   1.268       .  A
C365        C706   1.494       .  S
Cd366      O1081   2.511       .  S
Cd366      O1083   2.506       .  S
Cd366      O1093   2.420       .  S
Cd366       O372   2.416       .  S
Cd366       O371   2.454       .  S
Cd366      O1087   2.509       .  S
Cd366       O370   2.475       .  S
Cd366       O368   2.439       .  S
O367       C1082   1.273   1_455  A
O367      Cd1086   2.501   1_455  S
C369        O373   1.264       .  A
C369        C661   1.479       .  S
O372       C1084   1.264       .  A
O373      Cd1086   2.424   1_455  S
O374        C377   1.272       .  A
O374       Cd379   2.492       .  S
C375        O384   1.264       .  A
C375        O380   1.274       .  A
C375        C626   1.479       .  S
O376        C382   1.274       .  A
O376       Cd379   2.467       .  S
C377        O385   1.264       .  A
C377        C642   1.493       .  S
C378        O383   1.272       .  A
C378        O381   1.264       .  A
C378        C613   1.481       .  S
Cd379       O386   2.440       .  S
Cd379       O385   2.436       .  S
Cd379       O384   2.401       .  S
Cd379       O380   2.486       .  S
Cd379       O383   2.515       .  S
Cd379       O381   2.435       .  S
C382        O386   1.265       .  A
C382        C709   1.488       .  S
O387        C390   1.272       .  A
O387       Cd392   2.522       .  S
C388        O397   1.265       .  A
C388        O393   1.273       .  A
C388        C578   1.486       .  S
O389        C395   1.271       .  A
O389       Cd392   2.518       .  S
C390        O398   1.263       .  A
C390        C645   1.508       .  S
C391        O396   1.271       .  A
C391        O394   1.265       .  A
C391        C594   1.476       .  S
Cd392       O399   2.427       .  S
Cd392       O398   2.457       .  S
Cd392       O397   2.411       .  S
Cd392       O393   2.500       .  S
Cd392       O396   2.487       .  S
Cd392       O394   2.442       .  S
C395        O399   1.263       .  A
C395        C562   1.483       .  S
O400        C403   1.272   1_655  A
O400       Cd405   2.513   1_655  S
C401        O410   1.264   1_655  A
C401       O1126   1.273       .  A
C401       C1266   1.483       .  S
O402       C1128   1.271   1_455  A
O402       Cd405   2.504       .  S
C403        O411   1.263       .  A
C403        C693   1.502       .  S
C404        O409   1.269       .  A
C404        O407   1.266       .  A
C404        C597   1.494       .  S
Cd405      O1132   2.430   1_455  S
Cd405       O411   2.447       .  S
Cd405       O410   2.398       .  S
Cd405      O1126   2.515   1_455  S
Cd405       O409   2.488       .  S
Cd405       O407   2.452       .  S
O406       C1121   1.273       .  A
O406      Cd1125   2.522       .  S
C408       O1122   1.272       .  A
C408        O412   1.264       .  A
C408        C533   1.482       .  S
O412      Cd1125   2.423       .  S
O413        C416   1.266       .  A
O413       Cd418   2.500       .  S
C414        O423   1.265       .  A
C414        O419   1.271       .  A
C414        C658   1.483       .  S
O415        C421   1.269       .  A
O415       Cd418   2.518       .  S
C416        O424   1.266       .  A
C416        C498   1.504       .  S
C417        O422   1.269       .  A
C417        O420   1.265       .  A
C417        C514   1.479       .  S
Cd418       O425   2.417       .  S
Cd418       O424   2.467       .  S
Cd418       O423   2.414       .  S
Cd418       O419   2.491       .  S
Cd418       O422   2.494       .  S
Cd418       O420   2.428       .  S
C421        O425   1.261       .  A
C421        C629   1.474       .  S
C427        O432   1.274       .  A
C427        C610   1.492       .  S
O428       Cd431   2.499       .  S
C429        O437   1.264       .  A
C429        C482   1.495       .  S
C430        O435   1.269       .  A
C430        O433   1.265       .  A
C430        C517   1.474       .  S
Cd431       O437   2.458       .  S
Cd431       O436   2.385       .  S
Cd431       O435   2.464       .  S
Cd431       O433   2.430       .  S
C434        O438   1.263       .  A
C434        C674   1.477       .  S
O439        C442   1.272       .  A
C440        O449   1.266       .  A
C440        O445   1.272       .  A
C440        C485   1.498       .  S
O441       Cd444   2.523       .  S
C442        C565   1.486       .  S
C443        O448   1.271       .  A
C443        O446   1.265       .  A
C443        C469   1.489       .  S
Cd444       O450   2.396       .  S
Cd444       O449   2.468       .  S
Cd444       O445   2.493       .  S
Cd444       O448   2.494       .  S
Cd444       O446   2.451       .  S
C447        O451   1.263       .  A
C447        C549   1.475       .  S
O452        C455   1.272       .  A
O452       Cd457   2.507       .  S
C453        O462   1.267       .  A
C453        O458   1.268       .  A
C453        C501   1.505       .  S
O454        C460   1.271       .  A
O454       Cd457   2.529       .  S
C455        O463   1.263       .  A
C455        C530   1.482       .  S
C456        O461   1.270       .  A
C456        O459   1.267       .  A
C456        C466   1.502       .  S
Cd457       O464   2.415       .  S
Cd457       O463   2.421       .  S
Cd457       O462   2.469       .  S
Cd457       O458   2.495       .  S
Cd457       O461   2.489       .  S
Cd457       O459   2.449       .  S
C460        O464   1.263       .  A
C460        C581   1.481       .  S
C465        C466   1.410       .  A
C465        C470   1.408       .  A
C465        H472   1.082       .  S
C466        C467   1.426       .  A
C467        C468   1.413       .  A
C467        C474   1.519       .  S
C468        C469   1.403       .  A
C468        H473   1.083       .  S
C469        C470   1.416       .  A
C470        C471   1.519       .  S
C471        F475   1.385       .  S
C471        F476   1.382       .  S
C471        F477   1.382       .  S
C474        F478   1.384       .  S
C474        F479   1.383       .  S
C474        F480   1.385       .  S
C481        C482   1.404   1_545  A
C481        C486   1.409       .  A
C481        H488   1.083       .  S
C483       C1204   1.414   1_455  A
C483       C1210   1.520       .  S
C484       C1203   1.411       .  A
C484        C485   1.404       .  A
C484        H489   1.082       .  S
C485        C846   1.424       .  A
C486        C845   1.423   1_455  A
C486        C487   1.520       .  S
C487        F491   1.385       .  S
C487        F493   1.382       .  S
C490       C1203   1.520       .  S
C490       F1214   1.383       .  S
C490        F496   1.385       .  S
F494       C1210   1.382   1_655  S
C497        C498   1.409       .  A
C497        C502   1.411       .  A
C497        H504   1.081       .  S
C498        C499   1.423       .  A
C499        C500   1.413       .  A
C499        C506   1.521       .  S
C500        C501   1.410       .  A
C500        H505   1.082       .  S
C501        C502   1.423       .  A
C502        C503   1.521       .  S
C503        F507   1.385       .  S
C503        F508   1.383       .  S
C503        F509   1.383       .  S
C506        F510   1.383       .  S
C506        F511   1.383       .  S
C506        F512   1.385       .  S
C513        C514   1.406       .  A
C513        C518   1.405       .  A
C513        H520   1.084       .  S
C514        C515   1.416       .  A
C515        C516   1.408       .  A
C515        C522   1.518       .  S
C516        C517   1.405       .  A
C516        H521   1.084       .  S
C517        C518   1.411       .  A
C518        C519   1.518       .  S
C519        F523   1.384       .  S
C519        F524   1.384       .  S
C519        F525   1.383       .  S
C522        F526   1.383       .  S
C522        F527   1.382       .  S
C522        F528   1.385       .  S
C529        C530   1.402       .  A
C529        C534   1.407       .  A
C529        H536   1.084       .  S
C530        C531   1.420       .  A
C531        C532   1.411       .  A
C531        C538   1.519       .  S
C532        C533   1.402       .  A
C532        H537   1.083       .  S
C533        C534   1.419       .  A
C534        C535   1.519       .  S
C535        F539   1.385       .  S
C535        F540   1.382       .  S
C535        F541   1.384       .  S
C538        F542   1.382       .  S
C538        F543   1.384       .  S
C538        F544   1.384       .  S
C545       C1266   1.409   1_455  A
C545       C1270   1.407   1_455  A
C545        H552   1.084       .  S
C546       C1121   1.486       .  S
C546       C1265   1.410       .  A
C546        C547   1.425       .  A
C547        C548   1.408       .  A
C547        C554   1.519       .  S
C548        C549   1.400       .  A
C548        H553   1.085       .  S
C549        C550   1.409       .  A
C550       C1265   1.408       .  A
C550       C1271   1.517       .  S
C551       C1270   1.517   1_455  S
C551        F555   1.385       .  S
C551        F556   1.383       .  S
C554        F558   1.384       .  S
C554        F559   1.376       .  S
C554        F560   1.384       .  S
C561        C562   1.405       .  A
C561        C566   1.409       .  A
C561        H568   1.083       .  S
C562        C563   1.414       .  A
C563        C564   1.410       .  A
C563        C570   1.517   1_565  S
C564        C565   1.408       .  A
C565        C566   1.417       .  A
C566        C567   1.518       .  S
C567        F571   1.385       .  S
C567        F572   1.383       .  S
C567        F573   1.383       .  S
C570        F575   1.383       .  S
C570        F576   1.384       .  S
C577        C578   1.408       .  A
C577        C582   1.409       .  A
C577        H584   1.083       .  S
C578        C579   1.418       .  A
C579        C580   1.408       .  A
C579        C586   1.519       .  S
C580        C581   1.404       .  A
C580        H585   1.083       .  S
C581        C582   1.414       .  A
C582        C583   1.517       .  S
C583        F587   1.386       .  S
C583        F588   1.383       .  S
C583        F589   1.382       .  S
C586        F590   1.383       .  S
C586        F591   1.383       .  S
C586        F592   1.385       .  S
C593        C594   1.401       .  A
C593        C598   1.410       .  A
C593        H600   1.084       .  S
C594        C595   1.410       .  A
C595        C596   1.409       .  A
C595        C602   1.518       .  S
C596        C597   1.411       .  A
C596        H601   1.083       .  S
C597        C598   1.423       .  A
C598        C599   1.519       .  S
C599        F603   1.385       .  S
C599        F604   1.383       .  S
C599        F605   1.383       .  S
C602        F606   1.383       .  S
C602        F607   1.383       .  S
C602        F608   1.384       .  S
C609        C610   1.409       .  A
C609        C614   1.409       .  A
C610        C611   1.420       .  A
C611        C612   1.412       .  A
C611        C618   1.518       .  S
C612        C613   1.404       .  A
C612        H617   1.083       .  S
C613        C614   1.413       .  A
C614        C615   1.518       .  S
C615        F620   1.383       .  S
C618        F622   1.382       .  S
C618        F623   1.383       .  S
C618        F624   1.385       .  S
C625        C626   1.400       .  A
C625        C630   1.403       .  A
C625        H632   1.085       .  S
C626        C627   1.422       .  A
C627        C628   1.409       .  A
C627        C634   1.519       .  S
C628        C629   1.401       .  A
C628        H633   1.084       .  S
C629        C630   1.419       .  A
C630        C631   1.517       .  S
C631        F635   1.384       .  S
C631        F636   1.382       .  S
C631        F637   1.382       .  S
C634        F638   1.383       .  S
C634        F639   1.384       .  S
C634        F640   1.385       .  S
C641        C642   1.404   1_554  A
C641        H648   1.082   1_554  S
C642        C643   1.422       .  A
C643        C650   1.521       .  S
C644        C645   1.407       .  A
C644        H649   1.082   1_554  S
C645        C646   1.428   1_565  A
C646        C647   1.522       .  S
C647        F651   1.385       .  S
C647        F652   1.383       .  S
C647        F653   1.384       .  S
C650        F654   1.384       .  S
C650        F655   1.383       .  S
C650        F656   1.385       .  S
C657        C658   1.406       .  A
C657        C662   1.407       .  A
C657        H664   1.083       .  S
C658        C659   1.419       .  A
C659        C660   1.409       .  A
C659        C666   1.520       .  S
C660        C661   1.404       .  A
C660        H665   1.085       .  S
C661        C662   1.415       .  A
C662        C663   1.518       .  S
C663        F667   1.385       .  S
C663        F668   1.383       .  S
C663        F669   1.382       .  S
C666        F670   1.382       .  S
C666        F671   1.382       .  S
C666        F672   1.385       .  S
C673        C674   1.399       .  A
C673        C678   1.406       .  A
C673        H680   1.085       .  S
C674        C675   1.417       .  A
C675        C676   1.410       .  A
C675        C682   1.517       .  S
C676        C677   1.403       .  A
C676        H681   1.083       .  S
C677        C678   1.421       .  A
C678       C1399   1.517   1_455  S
C679       C1398   1.516       .  S
C679       F1403   1.385       .  S
C679       F1404   1.381       .  S
C679        F685   1.384       .  S
C682        F686   1.381       .  S
C682        F688   1.385       .  S
F683       C1399   1.384       .  S
F684       C1399   1.383       .  S
C689       C1410   1.405       .  A
C689        C694   1.411   1_556  A
C689        H696   1.082       .  S
C690       C1409   1.404       .  A
C690        C691   1.424       .  A
C691       C1412   1.413   1_556  A
C691        C698   1.521       .  S
C692       C1411   1.413   1_554  A
C692        C693   1.406   1_655  A
C692       H1417   1.082       .  S
C693        C694   1.426       .  A
C694        C695   1.521       .  S
C695        F699   1.385       .  S
C695        F700   1.383       .  S
C695        F701   1.384       .  S
H697       C1412   1.083       .  S
C698        F702   1.384       .  S
C698        F703   1.383       .  S
C698        F704   1.385       .  S
C705        C706   1.408       .  A
C705        C710   1.409       .  A
C705        H712   1.083       .  S
C706        C707   1.422       .  A
C707        C708   1.408       .  A
C707        C714   1.519       .  S
C708        C709   1.403       .  A
C708        H713   1.083       .  S
C709        C710   1.421       .  A
C710        C711   1.521       .  S
C711        F715   1.385       .  S
C711        F716   1.383       .  S
C711        F717   1.383       .  S
C714        F718   1.381       .  S
C714        F719   1.383       .  S
C714        F720   1.385       .  S
O721        C724   1.273       .  A
C722        O731   1.264       .  A
C722       C1050   1.512   1_655  S
O723        C729   1.269       .  A
C724       C1037   1.482       .  S
C725        O730   1.270       .  A
C725        O728   1.267       .  A
C725       C1066   1.499       .  S
Cd726       O732   2.404       .  S
Cd726       O731   2.468       .  S
Cd726       O730   2.494       .  S
Cd726       O728   2.446       .  S
C729        O733   1.264       .  A
C729       C1021   1.476       .  S
O734        C737   1.273       .  A
O734       Cd739   2.506       .  S
C735        O744   1.263       .  A
C735        O740   1.273       .  A
C735        C986   1.483       .  S
O736        C742   1.269       .  A
O736       Cd739   2.475       .  S
C737        O745   1.264       .  A
C737       C1002   1.508       .  S
C738        O743   1.269       .  A
C738        O741   1.264       .  A
C738        C973   1.481       .  S
Cd739       O746   2.445       .  S
Cd739       O745   2.466       .  S
Cd739       O744   2.415       .  S
Cd739       O740   2.514       .  S
Cd739       O743   2.490       .  S
Cd739       O741   2.445       .  S
C742        O746   1.265       .  A
C742       C1069   1.477       .  S
O747        C750   1.272       .  A
O747       Cd752   2.500       .  S
C748        O757   1.265       .  A
C748        O753   1.273       .  A
C748        C938   1.480       .  S
O749        C755   1.271       .  A
O749       Cd752   2.511       .  S
C750        O758   1.263       .  A
C750       C1005   1.495       .  S
C751        O756   1.271       .  A
C751        O754   1.266       .  A
C751        C954   1.477       .  S
Cd752       O759   2.422       .  S
Cd752       O758   2.449       .  S
Cd752       O757   2.400       .  S
Cd752       O753   2.504       .  S
Cd752       O756   2.475       .  S
Cd752       O754   2.448       .  S
C755        O759   1.263       .  A
C755        C922   1.477       .  S
O760        C763   1.272       .  A
O760       Cd765   2.513       .  S
C761        O770   1.265       .  A
O762       Cd765   2.507       .  S
C763        O771   1.264       .  A
C763       C1053   1.510       .  S
C764        O769   1.272       .  A
C764        O767   1.263       .  A
C764        C957   1.491       .  S
Cd765       O771   2.476       .  S
Cd765       O770   2.424       .  S
Cd765       O769   2.498       .  S
Cd765       O767   2.434       .  S
C768        O772   1.264       .  A
C768        C893   1.479       .  S
O773        C776   1.269       .  A
O773       Cd778   2.500       .  S
C774        O783   1.265       .  A
C774        O779   1.273       .  A
C774       C1018   1.494       .  S
O775        C781   1.270       .  A
O775       Cd778   2.504       .  S
C776        O784   1.266       .  A
C776        C858   1.507       .  S
C777        O782   1.270       .  A
C777        O780   1.266       .  A
C777        C874   1.480       .  S
Cd778       O785   2.422       .  S
Cd778       O784   2.479       .  S
Cd778       O783   2.412       .  S
Cd778       O779   2.518       .  S
Cd778       O782   2.476       .  S
Cd778       O780   2.441       .  S
C781        O785   1.264       .  A
C781        C989   1.474       .  S
O786       C1149   1.270   1_545  A
O786      Cd1151   2.502   1_545  S
C787       O1156   1.264   1_545  A
C787        O792   1.272       .  A
C787        C970   1.480       .  S
O788       C1154   1.270       .  A
O788       Cd791   2.511       .  S
C789       O1146   1.271       .  A
C789        O797   1.264       .  A
C789        C842   1.499       .  S
C790        O795   1.270       .  A
C790        O793   1.266       .  A
C790        C877   1.481       .  S
Cd791      O1146   2.504       .  S
Cd791      O1158   2.420       .  S
Cd791       O797   2.456       .  S
Cd791       O796   2.411       .  S
Cd791      O1152   2.505       .  S
Cd791       O795   2.478       .  S
Cd791       O793   2.433       .  S
O792      Cd1151   2.489   1_545  S
C794       O1148   1.268   1_545  A
C794        O798   1.263       .  A
C794       C1034   1.470       .  S
O796       C1147   1.265       .  A
O798      Cd1151   2.420   1_545  S
O799        C802   1.271       .  A
O799      Cd1164   2.526       .  S
C800        O809   1.265       .  A
C800        O805   1.271   1_545  A
C800        C845   1.496       .  S
O801       C1167   1.270   1_545  A
O801       Cd804   2.507       .  S
C802       O1170   1.263       .  A
C802        C925   1.491       .  S
C803        O808   1.271       .  A
C803        O806   1.265       .  A
C803        C829   1.485       .  S
Cd804      O1159   2.506   1_545  S
Cd804      O1171   2.416   1_545  S
Cd804       O810   2.431       .  S
Cd804       O809   2.460       .  S
Cd804       O805   2.503   1_545  S
Cd804       O808   2.477       .  S
Cd804       O806   2.434       .  S
C807       O1161   1.272       .  A
C807        O811   1.262       .  A
C807        C909   1.481       .  S
O810       C1162   1.264   1_545  A
O811      Cd1164   2.422       .  S
O812        C815   1.273       .  A
O812       Cd817   2.489       .  S
C813        O822   1.266       .  A
C813        O818   1.269       .  A
C813        C861   1.504       .  S
O814        C820   1.269       .  A
O814       Cd817   2.494       .  S
C815        O823   1.262       .  A
C815        C890   1.476       .  S
C816        O821   1.269       .  A
C816        O819   1.267       .  A
C816        C826   1.488       .  S
Cd817       O824   2.440       .  S
Cd817       O823   2.406       .  S
Cd817       O822   2.456       .  S
Cd817       O818   2.518       .  S
Cd817       O821   2.466       .  S
Cd817       O819   2.428       .  S
C820        O824   1.264       .  A
C820        C941   1.483       .  S
C825        C826   1.405       .  A
C825        C830   1.406       .  A
C825        H832   1.083       .  S
C826        C827   1.422       .  A
C827        C828   1.409       .  A
C827        C834   1.520       .  S
C828        C829   1.404       .  A
C828        H833   1.083       .  S
C829        C830   1.419       .  A
C830        C831   1.520       .  S
C831        F835   1.385       .  S
C831        F836   1.383       .  S
C831        F837   1.382       .  S
C834        F838   1.383       .  S
C834        F839   1.383       .  S
C834        F840   1.385       .  S
C841        C842   1.405       .  A
C841        C846   1.412       .  A
C841        H848   1.082       .  S
C842       C1203   1.425       .  A
C843       C1202   1.424       .  A
C844        C845   1.406   1_565  A
C844        H849   1.083       .  S
C846        C847   1.519       .  S
C847        F851   1.385       .  S
C847       F1212   1.382       .  S
C847        F853   1.383       .  S
C850       F1215   1.384       .  S
C850        F856   1.385   1_455  S
F852       C1207   1.382       .  S
F855       C1210   1.383       .  S
C857        C858   1.412       .  A
C857        C862   1.415       .  A
C857        H864   1.082       .  S
C858        C859   1.422       .  A
C859        C860   1.411       .  A
C859        C866   1.520       .  S
C860        C861   1.409       .  A
C860        H865   1.082       .  S
C861        C862   1.422       .  A
C862        C863   1.521       .  S
C863        F867   1.385       .  S
C863        F868   1.383       .  S
C863        F869   1.384       .  S
C866        F870   1.383       .  S
C866        F871   1.383       .  S
C866        F872   1.385       .  S
C873        C874   1.406       .  A
C873        C878   1.409       .  A
C873        H880   1.084       .  S
C874        C875   1.414       .  A
C875        C876   1.407       .  A
C875        C882   1.518       .  S
C876        C877   1.405       .  A
C876        H881   1.084       .  S
C877        C878   1.415       .  A
C878        C879   1.518       .  S
C879        F883   1.385       .  S
C879        F884   1.383       .  S
C879        F885   1.382       .  S
C882        F886   1.384       .  S
C882        F887   1.382       .  S
C882        F888   1.385       .  S
C889        C890   1.398       .  A
C889        C894   1.403       .  A
C889        H896   1.084       .  S
C890        C891   1.420       .  A
C891        C892   1.411       .  A
C891        C898   1.519       .  S
C892        C893   1.403       .  A
C892        H897   1.083       .  S
C893        C894   1.419       .  A
C894        C895   1.517       .  S
C895        F899   1.385       .  S
C895        F900   1.380       .  S
C895        F901   1.383       .  S
C898        F902   1.382       .  S
C898        F903   1.383       .  S
C898        F904   1.385       .  S
C905        H912   1.083       .  S
C906        C907   1.425       .  A
C907        C908   1.410       .  A
C907        C914   1.521       .  S
C908        C909   1.402       .  A
C908        H913   1.085       .  S
C909        C910   1.411       .  A
C911        F915   1.385       .  S
C911        F916   1.383       .  S
C911       F1277   1.383       .  S
C914        F918   1.385       .  S
C914        F919   1.377       .  S
C914        F920   1.383       .  S
F917       C1271   1.383       .  S
C921        C922   1.403       .  A
C921        C926   1.411       .  A
C921        H928   1.083       .  S
C922        C923   1.411       .  A
C923        C924   1.407       .  A
C923        C930   1.517       .  S
C924        C925   1.409       .  A
C924       H1289   1.083       .  S
C925        C926   1.421       .  A
C926        C927   1.518       .  S
C927        F931   1.385       .  S
C927        F932   1.383       .  S
C927        F933   1.383       .  S
H929       C1284   1.083   1_545  S
C930       F1294   1.382       .  S
C930        F935   1.383       .  S
C930        F936   1.385       .  S
F934       C1290   1.383       .  S
C937        C938   1.405       .  A
C937        C942   1.407       .  A
C937        H944   1.082       .  S
C938        C939   1.415       .  A
C939        C940   1.409       .  A
C939        C946   1.519       .  S
C940        C941   1.406       .  A
C940        H945   1.083       .  S
C941        C942   1.416       .  A
C942        C943   1.518       .  S
C943        F947   1.385       .  S
C943        F948   1.384       .  S
C943        F949   1.383       .  S
C946        F950   1.383       .  S
C946        F951   1.383       .  S
C946        F952   1.385       .  S
C953        C954   1.398       .  A
C953        C958   1.410       .  A
C953        H960   1.083       .  S
C954        C955   1.415       .  A
C955        C956   1.409       .  A
C955        C962   1.518       .  S
C956        C957   1.405       .  A
C956        H961   1.083       .  S
C957        C958   1.427       .  A
C958        C959   1.521       .  S
C959        F963   1.385       .  S
C959        F964   1.383       .  S
C959        F965   1.383       .  S
C962        F966   1.383       .  S
C962        F967   1.383       .  S
C962        F968   1.384       .  S
C969        C970   1.405       .  A
C969        C974   1.407       .  A
C969       H1336   1.084   1_545  S
C970        C971   1.416       .  A
C971        C972   1.409       .  A
C971        C978   1.519       .  S
C972        C973   1.405       .  A
C972        H977   1.083       .  S
C973        C974   1.416       .  A
C974        C975   1.518   1_545  S
C975       F1339   1.385       .  S
C975        F980   1.383   1_565  S
C975       F1341   1.382   1_565  S
H976       C1329   1.083       .  S
C978        F982   1.383       .  S
C978        F983   1.383       .  S
C978        F984   1.384       .  S
F979       C1335   1.385       .  S
F981       C1335   1.382       .  S
C985        C986   1.403       .  A
C985        C990   1.409       .  A
C985        H992   1.083       .  S
C986        C987   1.420       .  A
C987        C988   1.406       .  A
C987        C994   1.516       .  S
C988        C989   1.399       .  A
C988        H993   1.084       .  S
C989        C990   1.415       .  A
C990        C991   1.517       .  S
C991        F995   1.384       .  S
C991        F996   1.382       .  S
C991        F997   1.384       .  S
C994        F998   1.382       .  S
C994        F999   1.384       .  S
C994       F1000   1.385       .  S
C1001      C1002   1.406   1_554  A
C1001      C1366   1.412       .  A
C1001      H1008   1.082       .  S
C1002      C1003   1.428   1_545  A
C1003      C1364   1.414   1_556  A
C1003      C1010   1.522       .  S
C1004      C1363   1.410   1_554  A
C1004      C1005   1.404       .  A
C1004      H1009   1.083       .  S
C1005      C1006   1.424       .  A
C1006      C1361   1.412   1_554  A
C1006      C1007   1.521       .  S
C1007      F1011   1.385       .  S
C1007      F1012   1.383       .  S
C1007      F1013   1.384       .  S
C1010      F1014   1.383       .  S
C1010      F1015   1.383       .  S
C1010      F1016   1.385       .  S
C1017      C1018   1.410       .  A
C1017      C1022   1.406       .  A
C1017      H1024   1.083       .  S
C1018      C1019   1.422       .  A
C1019      C1020   1.412       .  A
C1019      C1026   1.517       .  S
C1020      C1021   1.402       .  A
C1020      H1025   1.084       .  S
C1021      C1022   1.410       .  A
C1022      C1023   1.518       .  S
C1023      F1027   1.385       .  S
C1023      F1028   1.383       .  S
C1023      F1029   1.383       .  S
C1026      F1030   1.383       .  S
C1026      F1031   1.383       .  S
C1026      F1032   1.385       .  S
C1033      C1034   1.396       .  A
C1033      C1038   1.404       .  A
C1033      H1040   1.084       .  S
C1034      C1035   1.414       .  A
C1035      C1036   1.410       .  A
C1035      C1042   1.516       .  S
C1036      C1037   1.404       .  A
C1036      H1041   1.083       .  S
C1037      C1038   1.421       .  A
C1039      F1045   1.384       .  S
C1042      F1046   1.382       .  S
C1042      F1407   1.384       .  S
C1042      F1048   1.384       .  S
F1047      C1402   1.383       .  S
C1049      C1054   1.415       .  A
C1049      H1056   1.082       .  S
C1050      C1051   1.428   1_455  A
C1051      C1058   1.521       .  S
C1052      C1053   1.406       .  A
C1053      C1054   1.428       .  A
C1054      C1055   1.522       .  S
C1055      F1059   1.385       .  S
C1055      F1060   1.383       .  S
C1055      F1061   1.383       .  S
C1058      F1062   1.383       .  S
C1058      F1063   1.383       .  S
C1058      F1064   1.385       .  S
C1065      C1066   1.412       .  A
C1065      C1070   1.408       .  A
C1065      H1072   1.082       .  S
C1066      C1067   1.425       .  A
C1067      C1068   1.411       .  A
C1067      C1074   1.519       .  S
C1068      C1069   1.401       .  A
C1068      H1073   1.083       .  S
C1069      C1070   1.411       .  A
C1070      C1071   1.519       .  S
C1071      F1075   1.384       .  S
C1071      F1076   1.383       .  S
C1071      F1077   1.382       .  S
C1074      F1078   1.382       .  S
C1074      F1079   1.383       .  S
C1074      F1080   1.385       .  S
O1081      C1084   1.274       .  A
C1082      O1091   1.264       .  A
C1082      C1410   1.502   1_655  S
O1083      C1089   1.271       .  A
C1084      C1397   1.486       .  S
C1085      O1090   1.270       .  A
C1085      O1088   1.267       .  A
C1085      C1426   1.493       .  S
Cd1086     O1092   2.412       .  S
Cd1086     O1091   2.458       .  S
Cd1086     O1090   2.475       .  S
Cd1086     O1088   2.436       .  S
C1089      O1093   1.264       .  A
C1089      C1381   1.480       .  S
O1094      C1097   1.272       .  A
O1094     Cd1099   2.502       .  S
C1095      O1104   1.263       .  A
C1095      O1100   1.274       .  A
C1095      C1346   1.478       .  S
O1096      C1102   1.273       .  A
O1096     Cd1099   2.477       .  S
C1097      O1105   1.265       .  A
C1097      C1362   1.496       .  S
C1098      O1103   1.271       .  A
C1098      O1101   1.264       .  A
C1098      C1333   1.479       .  S
Cd1099     O1106   2.433       .  S
Cd1099     O1105   2.444       .  S
Cd1099     O1104   2.406       .  S
Cd1099     O1100   2.484       .  S
Cd1099     O1103   2.509       .  S
Cd1099     O1101   2.437       .  S
C1102      O1106   1.265       .  A
C1102      C1429   1.492       .  S
O1107      C1110   1.272       .  A
O1107     Cd1112   2.515       .  S
C1108      O1117   1.264       .  A
C1108      O1113   1.272       .  A
C1108      C1298   1.488       .  S
O1109      C1115   1.271       .  A
O1109     Cd1112   2.522       .  S
C1110      O1118   1.264       .  A
C1110      C1365   1.508       .  S
C1111      O1116   1.270       .  A
C1111      O1114   1.266       .  A
C1111      C1314   1.476       .  S
Cd1112     O1119   2.420       .  S
Cd1112     O1118   2.458       .  S
Cd1112     O1117   2.422       .  S
Cd1112     O1113   2.511       .  S
Cd1112     O1116   2.473       .  S
Cd1112     O1114   2.447       .  S
C1115      O1119   1.262       .  A
C1115      C1282   1.482       .  S
O1120      C1123   1.272       .  A
O1120     Cd1125   2.511       .  S
C1121      O1130   1.264       .  A
O1122     Cd1125   2.511       .  S
C1123      O1131   1.265       .  A
C1123      C1413   1.499       .  S
C1124      O1129   1.270       .  A
C1124      O1127   1.266       .  A
C1124      C1317   1.500       .  S
Cd1125     O1131   2.469       .  S
Cd1125     O1130   2.410       .  S
Cd1125     O1129   2.495       .  S
Cd1125     O1127   2.448       .  S
C1128      O1132   1.265       .  A
C1128      C1253   1.479       .  S
O1133      C1136   1.268       .  A
O1133     Cd1138   2.503       .  S
C1134      O1143   1.265       .  A
C1134      O1139   1.272       .  A
C1134      C1378   1.485       .  S
O1135      C1141   1.269       .  A
O1135     Cd1138   2.514       .  S
C1136      O1144   1.266       .  A
C1136      C1218   1.504       .  S
C1137      O1142   1.269       .  A
C1137      O1140   1.265       .  A
C1137      C1234   1.479       .  S
Cd1138     O1145   2.417       .  S
Cd1138     O1144   2.484       .  S
Cd1138     O1143   2.416       .  S
Cd1138     O1139   2.504       .  S
Cd1138     O1142   2.484       .  S
Cd1138     O1140   2.431       .  S
C1141      O1145   1.262       .  A
C1141      C1349   1.474       .  S
C1147      O1152   1.273       .  A
C1147      C1330   1.488       .  S
O1148     Cd1151   2.498       .  S
C1149      O1157   1.263       .  A
C1149      C1202   1.499       .  S
C1150      O1155   1.269       .  A
C1150      O1153   1.266       .  A
C1150      C1237   1.474       .  S
Cd1151     O1157   2.467       .  S
Cd1151     O1156   2.406       .  S
Cd1151     O1155   2.461       .  S
Cd1151     O1153   2.427       .  S
C1154      O1158   1.264       .  A
C1154      C1394   1.475       .  S
O1159      C1162   1.272       .  A
C1160      O1169   1.266       .  A
C1160      O1165   1.271       .  A
C1160      C1205   1.500       .  S
O1161     Cd1164   2.533       .  S
C1162      C1285   1.487       .  S
C1163      O1168   1.271       .  A
C1163      O1166   1.265       .  A
C1163      C1189   1.492       .  S
Cd1164     O1170   2.413       .  S
Cd1164     O1169   2.479       .  S
Cd1164     O1165   2.509       .  S
Cd1164     O1168   2.504       .  S
Cd1164     O1166   2.460       .  S
C1167      O1171   1.263       .  A
C1167      C1269   1.474       .  S
O1172      C1175   1.273       .  A
O1172     Cd1177   2.500       .  S
C1173      O1182   1.267       .  A
C1173      O1178   1.269       .  A
C1173      C1221   1.504       .  S
O1174      C1180   1.271       .  A
O1174     Cd1177   2.526       .  S
C1175      O1183   1.262       .  A
C1175      C1250   1.483       .  S
C1176      O1181   1.270       .  A
C1176      O1179   1.268       .  A
C1176      C1186   1.504       .  S
Cd1177     O1184   2.418       .  S
Cd1177     O1183   2.417       .  S
Cd1177     O1182   2.465       .  S
Cd1177     O1178   2.513       .  S
Cd1177     O1181   2.500       .  S
Cd1177     O1179   2.446       .  S
C1180      O1184   1.263       .  A
C1180      C1301   1.486       .  S
C1185      C1186   1.410       .  A
C1185      C1190   1.409       .  A
C1185      H1192   1.082       .  S
C1186      C1187   1.426       .  A
C1187      C1188   1.414       .  A
C1187      C1194   1.519       .  S
C1188      C1189   1.404       .  A
C1188      H1193   1.083       .  S
C1189      C1190   1.417       .  A
C1190      C1191   1.519       .  S
C1191      F1195   1.385       .  S
C1191      F1196   1.382       .  S
C1191      F1197   1.382       .  S
C1194      F1198   1.383       .  S
C1194      F1199   1.383       .  S
C1194      F1200   1.385       .  S
C1201      C1202   1.404   1_545  A
C1201      C1206   1.410       .  A
C1201      H1208   1.082       .  S
C1204      C1205   1.405       .  A
C1204      H1209   1.083       .  S
C1206      C1207   1.519       .  S
C1207      F1211   1.385       .  S
C1207      F1213   1.382       .  S
C1210      F1216   1.385   1_455  S
C1217      C1218   1.410       .  A
C1217      C1222   1.415       .  A
C1217      H1224   1.082       .  S
C1218      C1219   1.422       .  A
C1219      C1220   1.411       .  A
C1219      C1226   1.520       .  S
C1220      C1221   1.408       .  A
C1220      H1225   1.082       .  S
C1221      C1222   1.423       .  A
C1222      C1223   1.520       .  S
C1223      F1227   1.385       .  S
C1223      F1228   1.383       .  S
C1223      F1229   1.383       .  S
C1226      F1230   1.383       .  S
C1226      F1231   1.383       .  S
C1226      F1232   1.385       .  S
C1233      C1234   1.407       .  A
C1233      C1238   1.406       .  A
C1233      H1240   1.084       .  S
C1234      C1235   1.416       .  A
C1235      C1236   1.407       .  A
C1235      C1242   1.518       .  S
C1236      C1237   1.404       .  A
C1236      H1241   1.084       .  S
C1237      C1238   1.413       .  A
C1238      C1239   1.518       .  S
C1239      F1243   1.384       .  S
C1239      F1244   1.384       .  S
C1239      F1245   1.383       .  S
C1242      F1246   1.383       .  S
C1242      F1247   1.382       .  S
C1242      F1248   1.385       .  S
C1249      C1250   1.402       .  A
C1249      C1254   1.406       .  A
C1249      H1256   1.083       .  S
C1250      C1251   1.422       .  A
C1251      C1252   1.411       .  A
C1251      C1258   1.520       .  S
C1252      C1253   1.401       .  A
C1252      H1257   1.083       .  S
C1253      C1254   1.416       .  A
C1254      C1255   1.517       .  S
C1255      F1259   1.385       .  S
C1255      F1260   1.382       .  S
C1255      F1261   1.384       .  S
C1258      F1262   1.382       .  S
C1258      F1263   1.384       .  S
C1258      F1264   1.385       .  S
C1265      H1272   1.084       .  S
C1266      C1267   1.423       .  A
C1267      C1268   1.407       .  A
C1267      C1274   1.519       .  S
C1268      C1269   1.401       .  A
C1268      H1273   1.085       .  S
C1269      C1270   1.410       .  A
C1271      F1275   1.385       .  S
C1271      F1276   1.383       .  S
C1274      F1278   1.383       .  S
C1274      F1279   1.376       .  S
C1274      F1280   1.384       .  S
C1281      C1282   1.405       .  A
C1281      C1286   1.409       .  A
C1281      H1288   1.083       .  S
C1282      C1283   1.414       .  A
C1283      C1284   1.411       .  A
C1283      C1290   1.517   1_565  S
C1284      C1285   1.408       .  A
C1285      C1286   1.418       .  A
C1286      C1287   1.518       .  S
C1287      F1291   1.385       .  S
C1287      F1292   1.383       .  S
C1287      F1293   1.383       .  S
C1290      F1295   1.383       .  S
C1290      F1296   1.384       .  S
C1297      C1298   1.408       .  A
C1297      C1302   1.411       .  A
C1297      H1304   1.083       .  S
C1298      C1299   1.418       .  A
C1299      C1300   1.408       .  A
C1299      C1306   1.519       .  S
C1300      C1301   1.405       .  A
C1300      H1305   1.083       .  S
C1301      C1302   1.416       .  A
C1302      C1303   1.517       .  S
C1303      F1307   1.385       .  S
C1303      F1308   1.383       .  S
C1303      F1309   1.382       .  S
C1306      F1310   1.382       .  S
C1306      F1311   1.383       .  S
C1306      F1312   1.385       .  S
C1313      C1314   1.400       .  A
C1313      C1318   1.411       .  A
C1313      H1320   1.083       .  S
C1314      C1315   1.410       .  A
C1315      C1316   1.408       .  A
C1315      C1322   1.519       .  S
C1316      C1317   1.413       .  A
C1316      H1321   1.082       .  S
C1317      C1318   1.425       .  A
C1318      C1319   1.519       .  S
C1319      F1323   1.385       .  S
C1319      F1324   1.383       .  S
C1319      F1325   1.382       .  S
C1322      F1326   1.382       .  S
C1322      F1327   1.384       .  S
C1322      F1328   1.385       .  S
C1329      C1330   1.407       .  A
C1329      C1334   1.407       .  A
C1330      C1331   1.419       .  A
C1331      C1332   1.412       .  A
C1331      C1338   1.518       .  S
C1332      C1333   1.404       .  A
C1332      H1337   1.083       .  S
C1333      C1334   1.413       .  A
C1334      C1335   1.518       .  S
C1335      F1340   1.383       .  S
C1338      F1342   1.383       .  S
C1338      F1343   1.383       .  S
C1338      F1344   1.384       .  S
C1345      C1346   1.399       .  A
C1345      C1350   1.402       .  A
C1345      H1352   1.085       .  S
C1346      C1347   1.421       .  A
C1347      C1348   1.408       .  A
C1347      C1354   1.518       .  S
C1348      C1349   1.401       .  A
C1348      H1353   1.084       .  S
C1349      C1350   1.419       .  A
C1350      C1351   1.517       .  S
C1351      F1355   1.384       .  S
C1351      F1356   1.383       .  S
C1351      F1357   1.382       .  S
C1354      F1358   1.382       .  S
C1354      F1359   1.384       .  S
C1354      F1360   1.385       .  S
C1361      C1362   1.405       .  A
C1361      H1368   1.083       .  S
C1362      C1363   1.423       .  A
C1363      C1370   1.520       .  S
C1364      C1365   1.407       .  A
C1364      H1369   1.082       .  S
C1365      C1366   1.428   1_565  A
C1366      C1367   1.522       .  S
C1367      F1371   1.385       .  S
C1367      F1372   1.383       .  S
C1367      F1373   1.384       .  S
C1370      F1374   1.384       .  S
C1370      F1375   1.383       .  S
C1370      F1376   1.385       .  S
C1377      C1378   1.407       .  A
C1377      C1382   1.408       .  A
C1377      H1384   1.083       .  S
C1378      C1379   1.418       .  A
C1379      C1380   1.409       .  A
C1379      C1386   1.518       .  S
C1380      C1381   1.404       .  A
C1380      H1385   1.085       .  S
C1381      C1382   1.415       .  A
C1382      C1383   1.518       .  S
C1383      F1387   1.385       .  S
C1383      F1388   1.383       .  S
C1383      F1389   1.383       .  S
C1386      F1390   1.382       .  S
C1386      F1391   1.383       .  S
C1386      F1392   1.385       .  S
C1393      C1394   1.398       .  A
C1393      C1398   1.407       .  A
C1393      H1400   1.084       .  S
C1394      C1395   1.415       .  A
C1395      C1396   1.410       .  A
C1395      C1402   1.517       .  S
C1396      C1397   1.404       .  A
C1396      H1401   1.083       .  S
C1397      C1398   1.422       .  A
C1399      F1405   1.383       .  S
C1402      F1406   1.382       .  S
C1402      F1408   1.384       .  S
C1409      C1414   1.412   1_556  A
C1409      H1416   1.083       .  S
C1410      C1411   1.426   1_455  A
C1411      C1418   1.521       .  S
C1412      C1413   1.405       .  A
C1413      C1414   1.423       .  A
C1414      C1415   1.519       .  S
C1415      F1419   1.385       .  S
C1415      F1420   1.382       .  S
C1415      F1421   1.384       .  S
C1418      F1422   1.384       .  S
C1418      F1423   1.383       .  S
C1418      F1424   1.385       .  S
C1425      C1426   1.406       .  A
C1425      C1430   1.408       .  A
C1425      H1432   1.083       .  S
C1426      C1427   1.421       .  A
C1427      C1428   1.410       .  A
C1427      C1434   1.519       .  S
C1428      C1429   1.405       .  A
C1428      H1433   1.083       .  S
C1429      C1430   1.422       .  A
C1430      C1431   1.522       .  S
C1431      F1435   1.385       .  S
C1431      F1436   1.383       .  S
C1431      F1437   1.383       .  S
C1434      F1438   1.383       .  S
C1434      F1439   1.383       .  S
C1434      F1440   1.385       .  S
