geometry optimzed in LAMMPS
_audit_creation_date              2020-12-01 
_audit_creation_method            'lammps2cif' 
_symmetry_space_group_name_H-M    'P1' 
_symmetry_Int_Tables_number       1 
_symmetry_cell_setting            triclinic 
loop_ 
_symmetry_equiv_pos_as_xyz 
  x,y,z 
_cell_length_a                    47.58744861 
_cell_length_b                    47.648021112207665 
_cell_length_c                    24.162184637094263 
_cell_angle_alpha                 90.1230008063474 
_cell_angle_beta                  88.32137765820333 
_cell_angle_gamma                 89.69842982263938 
loop_ 
_atom_site_label 
_atom_site_type_symbol 
_atom_site_fract_x 
_atom_site_fract_y 
_atom_site_fract_z 
_atom_site_charge 
C1          C  0.10091007  0.11390566  0.22092671     0.30100
C2          C  0.13458084  0.14538417  0.28398766     0.30100
C3          C  0.13109267  0.11887255  0.19644215    -0.06100
C4          C  0.09002724  0.14374978  0.23394342    -0.06900
C5          C  0.10671275  0.10159864  0.27920079    -0.06700
C6          C  0.14791102  0.13544648  0.22846258    -0.06100
C7          C  0.10673914  0.15994656  0.26729510    -0.06900
C8          C  0.12367791  0.11806442  0.31126353    -0.06800
C9          C  0.17320992  0.13927905  0.19934455    -0.32100
N10         N  0.17262262  0.12496707  0.15044771     0.14400
C11         C  0.14719317  0.11188880  0.14916469    -0.32100
H12         H  0.14090335  0.09842516  0.11569004     0.16300
C13         C  0.09105337  0.18411026  0.27982113    -0.31100
N14         N  0.06650198  0.18364252  0.25220455     0.13100
C15         C  0.06567442  0.15880610  0.22438235    -0.31100
C16         C  0.12694483  0.10443094  0.36138857    -0.31400
N17         N  0.11282373  0.07973790  0.36105298     0.13600
H18         H  0.13924940  0.11165439  0.39549012     0.16200
C19         C  0.10055565  0.07773230  0.31070538    -0.31400
H20         H  0.08859652  0.05978435  0.29765771     0.16200
H21         H  0.04829976  0.15185934  0.19997755     0.16200
H22         H  0.19053537  0.15209369  0.21237474     0.16300
H23         H  0.09605974  0.20043333  0.30891351     0.16200
N24         N  0.49326499  0.21286963  0.25057558    -0.36500
N25         N  0.03573704  0.25658173  0.25462674    -0.57100
N26         N  0.49127924  0.29951128  0.24434664    -0.36500
N27         N  0.44857597  0.25576430  0.25059628    -0.57100
C28         C  0.01631911  0.19762275  0.26374822     0.27100
C29         C  0.47027825  0.19727479  0.26404549     0.27100
C30         C  0.01350222  0.31532133  0.25924194     0.27100
C31         C  0.46756660  0.31486919  0.25494659     0.27100
C32         C  0.05254731  0.23391758  0.24415250     0.35700
C33         C  0.05141086  0.27969886  0.24320412     0.35700
C34         C  0.43343909  0.23231019  0.24063297     0.35700
C35         C  0.43248263  0.27799038  0.23574156     0.35700
C36         C  0.00785998  0.17219300  0.28617535    -0.21800
C37         C  0.47888176  0.17199916  0.28649694    -0.21800
C38         C  0.00372268  0.34084188  0.27990778    -0.21800
C39         C  0.47483824  0.34057251  0.27711348    -0.21800
C40         C  0.07888211  0.24273637  0.22576280    -0.22800
C41         C  0.07816540  0.27161920  0.22514822    -0.22800
C42         C  0.40778753  0.23970802  0.21905393    -0.22800
C43         C  0.40720221  0.26853631  0.21589245    -0.22800
C44         C  0.04478445  0.20542599  0.25327808    -0.18200
C45         C  0.44188762  0.20437621  0.25302724    -0.18200
C46         C  0.43964597  0.30671066  0.24311613    -0.18200
C47         C  0.04241657  0.30798535  0.25182586    -0.18200
H48         H  0.02115504  0.15547683  0.30093862     0.14700
H49         H  0.46568212  0.15504629  0.30143837     0.14700
H50         H  0.01604967  0.35792072  0.29578880     0.14700
H51         H  0.46081804  0.35735205  0.29056165     0.14700
H52         H  0.09675000  0.22979288  0.21349767     0.13000
H53         H  0.09538661  0.28506253  0.21225834     0.13000
H54         H  0.39125431  0.22583520  0.20626281     0.13000
H55         H  0.39011625  0.28102361  0.20033361     0.13000
H56         H  0.49330892  0.23142171  0.22797232     0.26300
H57         H  0.49242351  0.28054188  0.22294236     0.26300
C58         C  0.34832966  0.36376723  0.27365534     0.30100
C59         C  0.38220319  0.39746463  0.21099270     0.30100
C60         C  0.33599034  0.37347405  0.21815093    -0.06100
C61         C  0.35595437  0.39221049  0.30110806    -0.06900
C62         C  0.37710850  0.35132751  0.25644922    -0.06700
C63         C  0.35316186  0.39091521  0.18642918    -0.06100
C64         C  0.37338078  0.40936418  0.26899450    -0.06900
C65         C  0.39437083  0.36827754  0.22422619    -0.06800
C66         C  0.33787238  0.39880418  0.14068974    -0.32100
N67         N  0.31266310  0.38556452  0.14222533     0.14400
C68         C  0.31099588  0.37068804  0.19021351    -0.32100
H69         H  0.29271506  0.35886350  0.20364869     0.16300
C70         C  0.37707013  0.43394608  0.29906532    -0.31100
N71         N  0.36295722  0.43220386  0.34871290     0.13100
C72         C  0.34941562  0.40704535  0.34969855    -0.31100
C73         C  0.41930394  0.35352478  0.21478818    -0.31400
N74         N  0.41764794  0.32816900  0.24106105     0.13600
H75         H  0.43746984  0.36090484  0.19119140     0.16200
C76         C  0.39184029  0.32689271  0.26688523    -0.31400
H77         H  0.38447162  0.30965546  0.29245439     0.16200
H78         H  0.33544593  0.40037445  0.38317269     0.16200
H79         H  0.34417510  0.41340812  0.10855856     0.16300
H80         H  0.38888603  0.45217300  0.28593117     0.16200
N81         N  0.11159833  0.00719489  0.42121312    -0.36500
N82         N  0.11528982  0.05141897  0.50654192    -0.57100
N83         N  0.11485259  0.00811154  0.59249288    -0.36500
N84         N  0.11629470  0.46394369  0.50645120    -0.57100
C85         C  0.11825938  0.03012432  0.39027112     0.27100
C86         C  0.11866468  0.48412868  0.39047103     0.27100
C87         C  0.12118453  0.03127552  0.62280627     0.27100
C88         C  0.12164681  0.48504984  0.62262764     0.27100
C89         C  0.10896131  0.06719888  0.46164056     0.35700
C90         C  0.11111453  0.06793728  0.55216931     0.35700
C91         C  0.10977555  0.44777794  0.46220778     0.35700
C92         C  0.11156261  0.44808486  0.55243430     0.35700
C93         C  0.13007264  0.02146121  0.33990439    -0.21800
C94         C  0.13029214  0.49255158  0.34001412    -0.21800
C95         C  0.13214772  0.02271918  0.67258013    -0.21800
C96         C  0.13245210  0.49376773  0.67246062    -0.21800
C97         C  0.10042510  0.09372495  0.47911622    -0.22800
C98         C  0.10194534  0.09423486  0.53605882    -0.22800
C99         C  0.10057635  0.42175789  0.48035482    -0.22800
C100        C  0.10176544  0.42192958  0.53723884    -0.22800
C101        C  0.11276942  0.05863141  0.40503828    -0.18200
C102        C  0.11364699  0.45569782  0.40562561    -0.18200
C103        C  0.11718249  0.45633800  0.60776005    -0.18200
C104        C  0.11642882  0.05994338  0.60797296    -0.18200
H105        H  0.13801327  0.03456556  0.30651302     0.14700
H106        H  0.13837639  0.47927871  0.30675930     0.14700
H107        H  0.13952491  0.03591664  0.70556630     0.14700
H108        H  0.14006741  0.48068003  0.70539977     0.14700
H109        H  0.09374903  0.11102677  0.45364912     0.13000
H110        H  0.09662926  0.11194366  0.56251417     0.13000
H111        H  0.09354231  0.40443128  0.45539379     0.13000
H112        H  0.09578034  0.40476488  0.56426617     0.13000
H113        H  0.10020894  0.00729640  0.45868113     0.26300
H114        H  0.10404525  0.00798075  0.55571323     0.26300
N115        N  0.36761256  0.00450946  0.40954469    -0.36500
N116        N  0.36877237  0.04775842  0.49540900    -0.57100
N117        N  0.36896452  0.00407939  0.57956501    -0.36500
N118        N  0.36309584  0.46070976  0.49423828    -0.57100
C119        C  0.36234056  0.02811850  0.38001924     0.27100
C120        C  0.35948133  0.48214751  0.37896448     0.27100
C121        C  0.36351686  0.02740269  0.61058912     0.27100
C122        C  0.36100512  0.48150148  0.61027453     0.27100
C123        C  0.37501346  0.06360895  0.45038873     0.35700
C124        C  0.37564979  0.06329390  0.53989203     0.35700
C125        C  0.36813234  0.44474526  0.44827059     0.35700
C126        C  0.36933009  0.44460159  0.53864995     0.35700
C127        C  0.35065254  0.02065798  0.33027806    -0.21800
C128        C  0.34877228  0.49175187  0.32967586    -0.21800
C129        C  0.35168809  0.01956742  0.66124698    -0.21800
C130        C  0.34998666  0.49066974  0.66096817    -0.21800
C131        C  0.38598380  0.08914571  0.46625971    -0.22800
C132        C  0.38641968  0.08893382  0.52306959    -0.22800
C133        C  0.37776922  0.41848955  0.46362726    -0.22800
C134        C  0.37861107  0.41842368  0.52060559    -0.22800
C135        C  0.36916181  0.05611017  0.39540158    -0.18200
C136        C  0.36321869  0.45329580  0.39282060    -0.18200
C137        C  0.36539697  0.45286968  0.59520149    -0.18200
C138        C  0.37040448  0.05542837  0.59552267    -0.18200
H139        H  0.34413931  0.03459298  0.29769117     0.14700
H140        H  0.34048571  0.47925533  0.29651992     0.14700
H141        H  0.34499819  0.03323742  0.69500589     0.14700
H142        H  0.34165101  0.47789304  0.69451317     0.14700
H143        H  0.39288953  0.10618833  0.43973345     0.13000
H144        H  0.39373371  0.10578668  0.54895594     0.13000
H145        H  0.38400715  0.40124665  0.43669975     0.13000
H146        H  0.38561681  0.40109193  0.54562991     0.13000
H147        H  0.37893443  0.00353810  0.44566249     0.26300
H148        H  0.38043841  0.00338490  0.54225717     0.26300
C149        C  0.10292603  0.39963302  0.78853547     0.30100
C150        C  0.13547954  0.36613559  0.72175814     0.30100
C151        C  0.13109428  0.39057950  0.81203282    -0.06100
C152        C  0.08927328  0.37127159  0.77222109    -0.06900
C153        C  0.11119601  0.41221932  0.73150780    -0.06700
C154        C  0.14756114  0.37299920  0.77930325    -0.06100
C155        C  0.10615510  0.35401817  0.73845989    -0.06900
C156        C  0.12817648  0.39532351  0.69770243    -0.06800
C157        C  0.17054490  0.36580619  0.81100166    -0.32100
N158        N  0.16892100  0.37982768  0.86024025     0.14400
C159        C  0.14467515  0.39494770  0.86116062    -0.32100
H160        H  0.13748042  0.40830730  0.89504379     0.16300
C161        C  0.09123907  0.32938971  0.73044209    -0.31100
N162        N  0.06552771  0.33132625  0.75657771     0.13100
C163        C  0.06414276  0.35694575  0.78201949    -0.31100
C164        C  0.13262391  0.40983217  0.64831687    -0.31400
N165        N  0.11833115  0.43481374  0.65083008     0.13600
H166        H  0.14504017  0.40250903  0.61287216     0.16200
C167        C  0.10481005  0.43603277  0.70127855    -0.31400
H168        H  0.09082218  0.45288487  0.71450473     0.16200
H169        H  0.04614823  0.36449779  0.80616728     0.16200
H170        H  0.18731416  0.35131392  0.79967696     0.16300
H171        H  0.09856825  0.31104721  0.70778961     0.16200
N172        N  0.03716495  0.25792782  0.75573450    -0.36500
N173        N  0.49466469  0.21280818  0.75236082    -0.57100
N174        N  0.45056348  0.25489972  0.74126629    -0.36500
N175        N  0.49283844  0.30007266  0.75508885    -0.57100
C176        C  0.05252417  0.23529186  0.77111575     0.27100
C177        C  0.05165365  0.28134400  0.76946656     0.27100
C178        C  0.43522420  0.23130667  0.75136872     0.27100
C179        C  0.43421695  0.27739284  0.75568423     0.27100
C180        C  0.01888697  0.19786763  0.74458208     0.35700
C181        C  0.47337255  0.19635061  0.73475666     0.35700
C182        C  0.01559237  0.31674089  0.74535592     0.35700
C183        C  0.46985826  0.31505078  0.74049725     0.35700
C184        C  0.07688032  0.24446935  0.79540137    -0.21800
C185        C  0.07635620  0.27343897  0.79426602    -0.21800
C186        C  0.40900269  0.23899205  0.77303262    -0.21800
C187        C  0.40839519  0.26791928  0.77583150    -0.21800
C188        C  0.01293571  0.17200367  0.72154439    -0.22800
C189        C  0.48428790  0.17112364  0.71499200    -0.22800
C190        C  0.00701033  0.34222654  0.72411214    -0.22800
C191        C  0.47819107  0.34114734  0.72091775    -0.22800
C192        C  0.04620117  0.20665596  0.76005195    -0.18200
C193        C  0.04388281  0.30955670  0.75730594    -0.18200
C194        C  0.44136783  0.30620887  0.74792761    -0.18200
C195        C  0.44411655  0.20313297  0.74010346    -0.18200
H196        H  0.09348911  0.23164204  0.81186808     0.14700
H197        H  0.09240233  0.28710022  0.80992657     0.14700
H198        H  0.39210667  0.22527577  0.78644328     0.14700
H199        H  0.39088791  0.28048643  0.79144282     0.14700
H200        H  0.02772119  0.15554196  0.70992884     0.13000
H201        H  0.47287823  0.15384365  0.69739385     0.13000
H202        H  0.02010172  0.35970690  0.71149787     0.13000
H203        H  0.46497846  0.35769356  0.70525965     0.13000
H204        H  0.01940515  0.25734845  0.73166549     0.26300
H205        H  0.47006756  0.25575030  0.72065214     0.26300
C206        C  0.35327974  0.14326038  0.71710505     0.30100
C207        C  0.38877330  0.11058170  0.77465376     0.30100
C208        C  0.36239053  0.11560638  0.68831421    -0.06100
C209        C  0.38218398  0.15710881  0.72940495    -0.06900
C210        C  0.34224317  0.13372749  0.77428764    -0.06700
C211        C  0.38067668  0.09905220  0.71733148    -0.06100
C212        C  0.40027157  0.14027014  0.75922117    -0.06900
C213        C  0.36001962  0.11685991  0.80387943    -0.06800
C214        C  0.38645445  0.07547063  0.68485664    -0.32100
N215        N  0.37134128  0.07684645  0.63822700     0.14400
C216        C  0.35697906  0.10157418  0.63936092    -0.32100
H217        H  0.34348963  0.10862151  0.60686029     0.16300
C218        C  0.42528350  0.15515132  0.76373044    -0.31100
N219        N  0.42308400  0.18063079  0.73896271     0.13100
C220        C  0.39715192  0.18157893  0.71624390    -0.31100
C221        C  0.34563826  0.11043995  0.85332254    -0.31400
N222        N  0.31979323  0.12333039  0.85432405     0.13600
H223        H  0.35347805  0.09738807  0.88612650     0.16200
C224        C  0.31784067  0.13767364  0.80590745    -0.31400
H225        H  0.29996459  0.15032705  0.79453633     0.16200
H226        H  0.39022370  0.19873122  0.69078359     0.16200
H227        H  0.40065729  0.05840346  0.69379969     0.16300
H228        H  0.44422752  0.14808667  0.78283917     0.16200
N229        N  0.24049229  0.38432583  0.08584294    -0.36500
N230        N  0.19738229  0.38347163  0.00297903    -0.57100
N231        N  0.24159409  0.38024040  0.91542567    -0.36500
N232        N  0.28473533  0.38574909  0.99808509    -0.57100
C233        C  0.21728127  0.39094783  0.11734700     0.23100
C234        C  0.26328440  0.39162991  0.11495224     0.27100
C235        C  0.21845283  0.38596377  0.88585821     0.27100
C236        C  0.26444684  0.38691044  0.88318091     0.27100
C237        C  0.18114096  0.37879562  0.04917547     0.35700
C238        C  0.18177683  0.37646298  0.95895903     0.35700
C239        C  0.30046079  0.38080791  0.04312752     0.35700
C240        C  0.30106455  0.37918068  0.95268825     0.35700
C241        C  0.22547396  0.40287339  0.16665111    -0.21800
C242        C  0.25445570  0.40327129  0.16516641    -0.21800
C243        C  0.22673622  0.39670330  0.83466531    -0.21800
C244        C  0.25568816  0.39726479  0.83296843    -0.21800
C245        C  0.15520018  0.36861038  0.03432446    -0.22800
C246        C  0.15560416  0.36714312  0.97732725    -0.22800
C247        C  0.32680057  0.37098512  0.02609665    -0.22800
C248        C  0.32719562  0.37002914  0.96907135    -0.22800
C249        C  0.18899608  0.38493078  0.10432582    -0.18200
C250        C  0.29179636  0.38614451  0.09925670    -0.18200
C251        C  0.29298301  0.38240209  0.89664944    -0.18200
C252        C  0.19013631  0.38025829  0.90243518    -0.18200
H253        H  0.21199775  0.41038263  0.20042941     0.14700
H254        H  0.26754147  0.41109601  0.19761102     0.14700
H255        H  0.21335383  0.40350616  0.80177988     0.14700
H256        H  0.26876028  0.40455731  0.79859187     0.14700
H257        H  0.13777333  0.36275282  0.06157707     0.13000
H258        H  0.13852007  0.36003888  0.95233821     0.13000
H259        H  0.34394771  0.36479012  0.05190412     0.13000
H260        H  0.34465878  0.36298954  0.94283230     0.13000
H261        H  0.24090679  0.37248445  0.04956295     0.26300
H262        H  0.24181792  0.36949270  0.95291915     0.26300
N263        N  0.24619706  0.12610510  0.08815344    -0.36500
N264        N  0.29024386  0.12220065  0.00049778    -0.57100
N265        N  0.24632489  0.12586018  0.91669567    -0.36500
N266        N  0.20232017  0.12413601  0.00416247    -0.57100
C267        C  0.26926207  0.11975038  0.11783853     0.27100
C268        C  0.22299518  0.11995662  0.12006312     0.27100
C269        C  0.26944254  0.11865734  0.88509241     0.27100
C270        C  0.22312100  0.12050398  0.88667094     0.27100
C271        C  0.30607181  0.12870328  0.04462813     0.35700
C272        C  0.30624103  0.12777778  0.95434667     0.35700
C273        C  0.18643011  0.12999423  0.05055266     0.35700
C274        C  0.18646047  0.13074080  0.95995625     0.35700
C275        C  0.26051388  0.10926254  0.16895106    -0.21800
C276        C  0.23148327  0.10940562  0.17035010    -0.21800
C277        C  0.26071549  0.10833581  0.83475834    -0.21800
C278        C  0.23169408  0.10952501  0.83572458    -0.21800
C279        C  0.33199234  0.13867674  0.02628340    -0.22800
C280        C  0.33212338  0.13802401  0.96935530    -0.22800
C281        C  0.16054854  0.14051078  0.03559187    -0.22800
C282        C  0.16060729  0.14108704  0.97862317    -0.22800
C283        C  0.29793406  0.12457914  0.10121357    -0.18200
C284        C  0.19440615  0.12496380  0.10625962    -0.18200
C285        C  0.19450522  0.12638809  0.90304325    -0.18200
C286        C  0.29820429  0.12290265  0.89883589    -0.18200
H287        H  0.27364606  0.10207543  0.20192561     0.14700
H288        H  0.21817560  0.10239915  0.20461768     0.14700
H289        H  0.27387228  0.10068579  0.80063439     0.14700
H290        H  0.21845268  0.10283979  0.80258597     0.14700
H291        H  0.34899035  0.14609137  0.05112482     0.13000
H292        H  0.34922456  0.14486328  0.94224866     0.13000
H293        H  0.14346891  0.14756953  0.06278131     0.13000
H294        H  0.14358131  0.14873015  0.95398965     0.13000
H295        H  0.24628667  0.13672112  0.05057099     0.26300
H296        H  0.24650229  0.13658458  0.95422875     0.26300
C297        C  0.38311086  0.39672352  0.77565535     0.30100
C298        C  0.35048032  0.36408047  0.71365474     0.30100
C299        C  0.35389562  0.39003444  0.80186151    -0.06100
C300        C  0.37564073  0.40929577  0.71856232    -0.06900
C301        C  0.39537836  0.36765027  0.76137676    -0.06700
C302        C  0.33731925  0.37266086  0.77088049    -0.06100
C303        C  0.35906092  0.39221967  0.68728500    -0.06900
C304        C  0.37894603  0.35065616  0.72944120    -0.06800
C305        C  0.31319771  0.36734976  0.80313923    -0.32100
N306        N  0.31437320  0.38180554  0.85193866     0.14400
C307        C  0.33910891  0.39600471  0.85092365    -0.32100
H308        H  0.34584728  0.40966524  0.88375326     0.16300
C309        C  0.35332508  0.40620276  0.63858786    -0.31100
N310        N  0.36599582  0.43169591  0.63887308     0.13100
C311        C  0.37913402  0.43397821  0.68810369    -0.31100
C312        C  0.39389434  0.32561393  0.72210060    -0.31400
N313        N  0.41894858  0.32733734  0.74811600     0.13600
H314        H  0.38714423  0.30736516  0.69949409     0.16200
C315        C  0.41963825  0.35298223  0.77297493    -0.31400
H316        H  0.43665331  0.36055650  0.79764646     0.16200
H317        H  0.38969667  0.45280332  0.70089214     0.16200
H318        H  0.29611267  0.35371059  0.79219379     0.16300
H319        H  0.34040724  0.39851193  0.60574786     0.16200
C320        C  0.38803604  0.11307701  0.21601150     0.30100
C321        C  0.35159822  0.14475926  0.27875666     0.30100
C322        C  0.37919134  0.10025010  0.27325280    -0.06100
C323        C  0.39883722  0.14224993  0.23307131    -0.06900
C324        C  0.35950297  0.11973357  0.18957391    -0.06700
C325        C  0.36025790  0.11644090  0.30475561    -0.06100
C326        C  0.38053557  0.15844547  0.26554973    -0.06900
C327        C  0.34123931  0.13605622  0.22166409    -0.06800
C328        C  0.35488903  0.10219792  0.35403715    -0.32100
N329        N  0.36977952  0.07782840  0.35336007     0.14400
C330        C  0.38556348  0.07706807  0.30588253    -0.32100
H331        H  0.40137569  0.06112238  0.29858467     0.16300
C332        C  0.39507615  0.18273116  0.27872131    -0.31100
N333        N  0.42095858  0.18216260  0.25306834     0.13100
C334        C  0.42349460  0.15729399  0.22571048    -0.31100
C335        C  0.31690812  0.13972408  0.19252252    -0.31400
N336        N  0.31937548  0.12566806  0.14344663     0.13600
H337        H  0.29863052  0.15173908  0.20627554     0.16200
C338        C  0.34543709  0.11326925  0.14151089    -0.31400
H339        H  0.35352565  0.10023837  0.10787776     0.16200
H340        H  0.44207637  0.15068688  0.20221927     0.16200
H341        H  0.34146291  0.10902492  0.38840585     0.16300
H342        H  0.38776379  0.19955059  0.30565334     0.16200
C343        C  0.13695261  0.14852891  0.72803262     0.30100
C344        C  0.10282083  0.11533512  0.79128624     0.30100
C345        C  0.14977737  0.13800615  0.78288631    -0.06100
C346        C  0.10872035  0.16184925  0.74727282    -0.06900
C347        C  0.12784187  0.12060017  0.70005431    -0.06700
C348        C  0.13220863  0.12141625  0.81574977    -0.06100
C349        C  0.09139679  0.14523455  0.78015302    -0.06900
C350        C  0.11011079  0.10408207  0.73257391    -0.06800
C351        C  0.14679308  0.11573891  0.86391927    -0.32100
N352        N  0.17291794  0.12744621  0.86065762     0.14400
C353        C  0.17488249  0.14087519  0.81087908    -0.32100
H354        H  0.19331632  0.15215337  0.79634481     0.16300
C355        C  0.06694910  0.16073057  0.79093324    -0.31100
N356        N  0.06857924  0.18570712  0.76366517     0.13100
C357        C  0.09422862  0.18658561  0.73714573    -0.31100
C358        C  0.10353465  0.08048951  0.70180844    -0.31400
N359        N  0.11718046  0.08154702  0.65140817     0.13600
H360        H  0.08994645  0.06357175  0.71550967     0.16200
C361        C  0.13235274  0.10586658  0.65035778    -0.31400
H362        H  0.14618676  0.11198382  0.61623833     0.16200
H363        H  0.10145469  0.20355910  0.71074314     0.16200
H364        H  0.13887573  0.10436080  0.89966950     0.16300
H365        H  0.04888751  0.15420927  0.81578861     0.16200
C366        C  0.13193220  0.36694128  0.28531755     0.30100
C367        C  0.09794467  0.39947639  0.22462530     0.30100
C368        C  0.14426953  0.37604670  0.22848325    -0.06100
C369        C  0.10336577  0.35345321  0.27085794    -0.06900
C370        C  0.12253866  0.39491610  0.31300882    -0.06700
C371        C  0.12721307  0.39308710  0.19733737    -0.06100
C372        C  0.08653298  0.37016905  0.23863615    -0.06900
C373        C  0.10558397  0.41180052  0.28178087    -0.06800
C374        C  0.14253972  0.39919058  0.14885334    -0.32100
N375        N  0.16758667  0.38520038  0.14880773     0.14400
C376        C  0.16884610  0.37116183  0.19772763    -0.32100
H377        H  0.18626294  0.35806890  0.20984930     0.16300
C378        C  0.06248116  0.35528176  0.22738865    -0.31100
N379        N  0.06346570  0.33009204  0.25363174     0.13100
C380        C  0.08789048  0.32920326  0.28163927    -0.31100
C381        C  0.10046497  0.43614752  0.31261159    -0.31400
N382        N  0.11340674  0.43423692  0.36214614     0.13600
H383        H  0.08837123  0.45416294  0.29980163     0.16200
C384        C  0.12690998  0.40897275  0.36254496    -0.31400
H385        H  0.13937543  0.40154235  0.39630221     0.16200
H386        H  0.09316109  0.31224658  0.30905475     0.16200
H387        H  0.13635940  0.41301662  0.11591998     0.16300
H388        H  0.04548883  0.36232526  0.20194098     0.16200
O389        O  0.01290672  0.03366467  0.09067253    -0.80000
O390        O  0.47158839  0.01211526  0.86877383    -0.80100
O391        O  0.02226194  0.04638942  0.96145673    -0.80100
O392        O  0.44724051  0.04453675  0.04047612    -0.80000
O393        O  0.02517841  0.01644606  0.89116130    -0.80100
O394        O  0.48608955  0.03664960  0.08755062    -0.80000
O395        O  0.46064863  0.04373268  0.93270315    -0.80000
O396        O  0.05484845  0.03088978  0.04680829    -0.80100
C397        C  0.03905860  0.04165044  0.08415585     1.09700
C398        C  0.46275241  0.03651243  0.88285106     1.09500
C399        C  0.02914585  0.04070011  0.91173560     1.09700
C400        C  0.46378962  0.05093060  0.07786648     1.09600
O401        O  0.45616673  0.49633992  0.10127997    -0.80000
O402        O  0.02259521  0.46215112  0.95140719    -0.80100
O403        O  0.03211174  0.47948989  0.06050110    -0.80000
O404        O  0.43527664  0.48929720  0.92444862    -0.80000
O405        O  0.46926687  0.45863934  0.93104545    -0.80100
O406        O  0.00466637  0.48509886  0.13514785    -0.80000
O407        O  0.43009709  0.48650087  0.03224057    -0.80000
O408        O  0.05296110  0.49469131  0.96245648    -0.80100
Co409      Co  0.49314675  0.99637881  0.06476264     1.51500
Co410      Co  0.49685811  0.98715559  0.91387193     1.51700
Co411      Co  0.02443422  0.01458586  0.01188473     1.51600
Co412      Co  0.44570673  0.01607483  0.98307440     1.51500
O413        O  0.48644394  0.00388947  0.98677766    -1.42000
C414        C  0.43712655  0.48206701  0.08110886     1.09600
C415        C  0.04754935  0.46993289  0.94796923     1.09700
C416        C  0.02500452  0.47287935  0.11051928     1.09600
C417        C  0.44489931  0.46478418  0.91800366     1.09600
O418        O  0.26889876  0.20349257  0.45960929    -0.80000
O419        O  0.25744559  0.31591272  0.54765208    -0.80100
O420        O  0.25506237  0.27953308  0.38124327    -0.80100
O421        O  0.28610040  0.22738483  0.56728343    -0.80000
O422        O  0.27138265  0.29960043  0.45264526    -0.80100
O423        O  0.25481180  0.19465641  0.56202743    -0.80000
O424        O  0.28811333  0.28288693  0.56223409    -0.80000
O425        O  0.25438356  0.22496452  0.38703198    -0.80100
C426        C  0.27065334  0.20787802  0.40884842     1.09700
C427        C  0.28132507  0.30833176  0.56375150     1.09500
C428        C  0.27321261  0.29477962  0.40233460     1.09700
C429        C  0.27818081  0.20313547  0.57929817     1.09600
O430        O  0.20309313  0.22677194  0.54940781    -0.80000
O431        O  0.22024050  0.32426366  0.46447865    -0.80100
O432        O  0.20109342  0.22491679  0.44851337    -0.80000
O433        O  0.23214074  0.28620260  0.61334603    -0.80000
O434        O  0.20383598  0.28647199  0.54424557    -0.80100
O435        O  0.21655852  0.18380801  0.47741235    -0.80000
O436        O  0.23018530  0.23046585  0.61973624    -0.80000
O437        O  0.20120301  0.28391724  0.44110376    -0.80100
Co438      Co  0.23572169  0.21618333  0.50193355     1.51500
Co439      Co  0.23703746  0.29190754  0.49450638     1.51700
Co440      Co  0.22966447  0.25340669  0.42257058     1.51600
Co441      Co  0.25909386  0.25655420  0.58576691     1.51500
O442        O  0.24997138  0.25415091  0.50382260    -1.42000
C443        C  0.20672766  0.22390165  0.60006661     1.09600
C444        C  0.20355725  0.31056589  0.43475037     1.09700
C445        C  0.20224451  0.19811371  0.44366833     1.09600
C446        C  0.20860956  0.29255559  0.59356109     1.09600
C447        C  0.06000716  0.43467714  0.10786265    -0.13200
C448        C  0.04050587  0.45111192  0.13815279     0.08900
C449        C  0.03667908  0.44713142  0.19513038    -0.13200
C450        C  0.05451361  0.42919488  0.22236501    -0.13200
C451        C  0.07712893  0.41627774  0.19335605     0.08900
C452        C  0.07776042  0.41674243  0.13537493    -0.13200
H453        H  0.06186254  0.43600537  0.06314159     0.12900
H454        H  0.02062497  0.45849713  0.21883491     0.12900
H455        H  0.05106222  0.42608613  0.26636950     0.12900
H456        H  0.09159196  0.40327631  0.11107894     0.12900
C457        C  0.15078254  0.32183590  0.32586547    -0.13200
C458        C  0.15269877  0.35083957  0.31822337     0.08900
C459        C  0.17498046  0.36545340  0.34185113    -0.13200
C460        C  0.19128095  0.35257420  0.38103271    -0.13200
C461        C  0.18645698  0.32447985  0.39444322     0.08900
C462        C  0.16707984  0.30880668  0.36478367    -0.13200
H463        H  0.13754682  0.30894499  0.30119826     0.12900
H464        H  0.17883380  0.38729219  0.33205796     0.12900
H465        H  0.20748556  0.36454974  0.40079502     0.12900
H466        H  0.16459042  0.28645655  0.37130135     0.12900
C467        C  0.17027877  0.18963177  0.72139111    -0.13200
C468        C  0.15434166  0.16912231  0.69450289     0.08900
C469        C  0.15108551  0.17149609  0.63717134    -0.13200
C470        C  0.16698330  0.19070537  0.60665992    -0.13200
C471        C  0.18590452  0.20838544  0.63320947     0.08900
C472        C  0.18674538  0.20843961  0.69093471    -0.13200
H473        H  0.17015969  0.19121453  0.76599181     0.12900
H474        H  0.13614823  0.15880603  0.61569206     0.12900
H475        H  0.16523263  0.19091084  0.56205736     0.12900
H476        H  0.20034882  0.22273254  0.71235435     0.12900
C477        C  0.05415979  0.09619136  0.81318382    -0.13200
C478        C  0.08323149  0.09599462  0.82306891     0.08900
C479        C  0.09398170  0.07480891  0.85687650    -0.13200
C480        C  0.07595065  0.05754192  0.88709638    -0.13200
C481        C  0.04696539  0.05998356  0.88128918     0.08900
C482        C  0.03600603  0.07862307  0.84302477    -0.13200
H483        H  0.04545307  0.10948128  0.78174100     0.12900
H484        H  0.11621091  0.07064120  0.85862913     0.12900
H485        H  0.08463714  0.04171823  0.91395786     0.12900
H486        H  0.01368551  0.07922823  0.83566866     0.12900
C487        C  0.41608179  0.06931112  0.18994864    -0.13200
C488        C  0.40885673  0.09717943  0.17911379     0.08900
C489        C  0.42213109  0.11061841  0.13356898    -0.13200
C490        C  0.44358240  0.09702784  0.10307156    -0.13200
C491        C  0.45242989  0.07020400  0.11881944     0.08900
C492        C  0.43906830  0.05688130  0.16361270    -0.13200
H493        H  0.40271822  0.05593130  0.21443156     0.12900
H494        H  0.41562909  0.13145266  0.12129027     0.12900
H495        H  0.45215966  0.10666640  0.06573839     0.12900
H496        H  0.44358703  0.03510403  0.17290839     0.12900
C497        C  0.30989300  0.20646737  0.34023661    -0.13200
C498        C  0.29056916  0.19231611  0.37449717     0.08900
C499        C  0.28898437  0.16311681  0.37307721    -0.13200
C500        C  0.30788891  0.14799021  0.33984009    -0.13200
C501        C  0.32996702  0.16173336  0.31120297     0.08900
C502        C  0.32931576  0.19120795  0.30812104    -0.13200
H503        H  0.31003041  0.22919940  0.33869203     0.12900
H504        H  0.27276427  0.15214530  0.39671060     0.12900
H505        H  0.30519378  0.12553751  0.33676520     0.12900
H506        H  0.34318641  0.20254970  0.28015082     0.12900
C507        C  0.28757134  0.34622417  0.63003813    -0.13200
C508        C  0.29943998  0.32718676  0.59211675     0.08900
C509        C  0.32823021  0.32137220  0.59157930    -0.13200
C510        C  0.34468299  0.33271118  0.63199039    -0.13200
C511        C  0.33224976  0.34871904  0.67505766     0.08900
C512        C  0.30394859  0.35702879  0.67129811    -0.13200
H513        H  0.26542116  0.35144923  0.62975137     0.12900
H514        H  0.33772643  0.30726823  0.56105158     0.12900
H515        H  0.36709221  0.32937365  0.62839911     0.12900
H516        H  0.29453696  0.37227466  0.69948697     0.12900
C517        C  0.40324616  0.40533286  0.86832612    -0.13200
C518        C  0.40188942  0.41267091  0.81205531     0.08900
C519        C  0.41962326  0.43352300  0.79058885    -0.13200
C520        C  0.43331914  0.45091667  0.82620975    -0.13200
C521        C  0.43101926  0.44598010  0.88288978     0.08900
C522        C  0.41757506  0.42235778  0.90416568    -0.13200
H523        H  0.39244363  0.38708285  0.88474230     0.12900
H524        H  0.42359529  0.43614210  0.74687624     0.12900
H525        H  0.44593792  0.46800514  0.80967697     0.12900
H526        H  0.41762261  0.41759856  0.94797596     0.12900
C527        C  0.42962785  0.10152464  0.83695253    -0.13200
C528        C  0.40768535  0.09115272  0.80570250     0.08900
C529        C  0.40423870  0.06193529  0.80172670    -0.13200
C530        C  0.42510846  0.04384799  0.81919522    -0.13200
C531        C  0.44846166  0.05469900  0.84538570     0.08900
C532        C  0.45050250  0.08363925  0.85461104    -0.13200
H533        H  0.42997175  0.12307636  0.85047842     0.12900
H534        H  0.38549278  0.05304092  0.78464398     0.12900
H535        H  0.42180311  0.02139278  0.81672387     0.12900
H536        H  0.46685987  0.09203580  0.88009642     0.12900
C537        C  0.33190055  0.18851676  0.68448957    -0.13200
C538        C  0.33140531  0.15930537  0.68670101     0.08900
C539        C  0.30890992  0.14494660  0.66264801    -0.13200
C540        C  0.29102393  0.15892914  0.62734959    -0.13200
C541        C  0.29472067  0.18759749  0.61852555     0.08900
C542        C  0.31415056  0.20252688  0.64975084    -0.13200
H543        H  0.34549248  0.20071803  0.70990343     0.12900
H544        H  0.30587049  0.12270746  0.66939272     0.12900
H545        H  0.27496191  0.14738130  0.60624223     0.12900
H546        H  0.31576512  0.22516881  0.64729336     0.12900
C547        C  0.07349458  0.40639368  0.87528431    -0.13200
C548        C  0.08798532  0.41846223  0.82990578     0.08900
C549        C  0.09530173  0.44708486  0.83301841    -0.13200
C550        C  0.08456065  0.46395763  0.87576714    -0.13200
C551        C  0.06721990  0.45216694  0.91700204     0.08900
C552        C  0.06286158  0.42314169  0.91802960    -0.13200
H553        H  0.07068189  0.38397334  0.87843865     0.12900
H554        H  0.10956370  0.45651190  0.80292856     0.12900
H555        H  0.08838071  0.48635304  0.87471906     0.12900
H556        H  0.04996698  0.41365224  0.95055522     0.12900
C557        C  0.20085502  0.33082454  0.66042141    -0.13200
C558        C  0.18945926  0.31116740  0.62448329     0.08900
C559        C  0.16068153  0.31209503  0.61389879    -0.13200
C560        C  0.14317163  0.33085947  0.64320971    -0.13200
C561        C  0.15425663  0.34847255  0.68387957     0.08900
C562        C  0.18357044  0.35017239  0.68759800    -0.13200
H563        H  0.22327883  0.33178582  0.66634213     0.12900
H564        H  0.15179323  0.29823561  0.58350832     0.12900
H565        H  0.12110276  0.33153942  0.63397119     0.12900
H566        H  0.19332431  0.36632463  0.71176058     0.12900
C567        C  0.31451816  0.32303572  0.28069615    -0.13200
C568        C  0.33081671  0.34338959  0.30708560     0.08900
C569        C  0.33294300  0.34222422  0.36473001    -0.13200
C570        C  0.31492117  0.32529477  0.39572023    -0.13200
C571        C  0.29528977  0.30840679  0.36926037     0.08900
C572        C  0.29616445  0.30620928  0.31154301    -0.13200
H573        H  0.31553463  0.32037147  0.23626595     0.12900
H574        H  0.34829552  0.35446376  0.38611666     0.12900
H575        H  0.31583130  0.32607936  0.44045490     0.12900
H576        H  0.28226322  0.29212709  0.29034296     0.12900
C577        C  0.39952640  0.41547553  0.11763213    -0.13200
C578        C  0.40143083  0.41548899  0.17552066     0.08900
C579        C  0.42040744  0.43386381  0.19976456    -0.13200
C580        C  0.43157036  0.45601099  0.16924083    -0.13200
C581        C  0.42513340  0.45898167  0.11324239     0.08900
C582        C  0.41031236  0.43774069  0.08687521    -0.13200
H583        H  0.38886951  0.39885500  0.09629186     0.12900
H584        H  0.42589070  0.43173173  0.24264463     0.12900
H585        H  0.44494440  0.47091792  0.18961506     0.12900
H586        H  0.40718610  0.43826066  0.04267966     0.12900
C587        C  0.17654511  0.14514925  0.34369091    -0.13200
C588        C  0.15507633  0.16059704  0.31867815     0.08900
C589        C  0.15325390  0.18949212  0.32768883    -0.13200
C590        C  0.16843613  0.20157579  0.36922341    -0.13200
C591        C  0.18662865  0.18504153  0.40029532     0.08900
C592        C  0.19169004  0.15707951  0.38569388    -0.13200
H593        H  0.18031245  0.12331576  0.33315666     0.12900
H594        H  0.14073668  0.20295334  0.30251388     0.12900
H595        H  0.16584658  0.22386093  0.37693516     0.12900
H596        H  0.20711123  0.14452028  0.40673212     0.12900
C597        C  0.05911940  0.08213230  0.20825853    -0.13200
C598        C  0.08121598  0.09812044  0.18504694     0.08900
C599        C  0.08318073  0.10114150  0.12729746    -0.13200
C600        C  0.06842326  0.08325814  0.09377160    -0.13200
C601        C  0.04989900  0.06387941  0.11784768     0.08900
C602        C  0.04367084  0.06466485  0.17466143    -0.13200
H603        H  0.05413698  0.08259593  0.25213593     0.12900
H604        H  0.09676286  0.11657884  0.10790137     0.12900
H605        H  0.07199131  0.08400288  0.04928438     0.12900
H606        H  0.02818210  0.05070368  0.19322686     0.12900
C607        C  0.10090964  0.61390775  0.22092538     0.30100
C608        C  0.13458104  0.64538468  0.28398832     0.30100
C609        C  0.13109241  0.61887435  0.19644138    -0.06100
C610        C  0.09002743  0.64375190  0.23394387    -0.06900
C611        C  0.10671206  0.60159983  0.27919874    -0.06700
C612        C  0.14791100  0.63544757  0.22846278    -0.06100
C613        C  0.10673962  0.65994785  0.26729657    -0.06900
C614        C  0.12367759  0.61806474  0.31126240    -0.06800
C615        C  0.17321007  0.63927996  0.19934542    -0.32100
N616        N  0.17262280  0.62496836  0.15044815     0.14400
C617        C  0.14719315  0.61189048  0.14916432    -0.32100
H618        H  0.14090343  0.59842696  0.11568939     0.16300
C619        C  0.09105443  0.68411174  0.27982403    -0.31100
N620        N  0.06650299  0.68364484  0.25220749     0.13100
C621        C  0.06567496  0.65880888  0.22438379    -0.31100
C622        C  0.12694408  0.60443056  0.36138662    -0.31400
N623        N  0.11282224  0.57973800  0.36104985     0.13600
H624        H  0.13924871  0.61165329  0.39548866     0.16200
C625        C  0.10055411  0.57773334  0.31070220    -0.31400
H626        H  0.08859424  0.55978603  0.29765380     0.16200
H627        H  0.04830015  0.65186286  0.19997860     0.16200
H628        H  0.19053561  0.65209423  0.21237642     0.16300
H629        H  0.09606143  0.70043435  0.30891703     0.16200
N630        N  0.49326598  0.71287128  0.25057770    -0.36500
N631        N  0.03573775  0.75658407  0.25462930    -0.57100
N632        N  0.49127984  0.79951303  0.24434793    -0.36500
N633        N  0.44857682  0.75576516  0.25059709    -0.57100
C634        C  0.01632026  0.69762488  0.26375157     0.27100
C635        C  0.47027940  0.69727595  0.26404655     0.27100
C636        C  0.01350257  0.81532353  0.25924273     0.27100
C637        C  0.46756698  0.81487066  0.25494730     0.27100
C638        C  0.05254833  0.73391999  0.24415643     0.35700
C639        C  0.05141147  0.77970126  0.24320636     0.35700
C640        C  0.43344002  0.73231095  0.24063374     0.35700
C641        C  0.43248335  0.77799121  0.23574276     0.35700
C642        C  0.00786133  0.67219504  0.28617859    -0.21800
C643        C  0.47888310  0.67200053  0.28649861    -0.21800
C644        C  0.00372271  0.84084418  0.27990748    -0.21800
C645        C  0.47483822  0.84057435  0.27711316    -0.21800
C646        C  0.07888318  0.74273888  0.22576734    -0.22800
C647        C  0.07816621  0.77162169  0.22515148    -0.22800
C648        C  0.40778834  0.73970876  0.21905520    -0.22800
C649        C  0.40720290  0.76853704  0.21589399    -0.22800
C650        C  0.04478556  0.70542837  0.25328204    -0.18200
C651        C  0.44188877  0.70437691  0.25302752    -0.18200
C652        C  0.43964652  0.80671162  0.24311684    -0.18200
C653        C  0.04241698  0.80798774  0.25182744    -0.18200
H654        H  0.02115652  0.65547913  0.30094258     0.14700
H655        H  0.46568364  0.65504738  0.30143938     0.14700
H656        H  0.01604948  0.85792332  0.29578792     0.14700
H657        H  0.46081776  0.85735381  0.29056064     0.14700
H658        H  0.09675129  0.72979544  0.21350332     0.13000
H659        H  0.09538739  0.78506503  0.21226161     0.13000
H660        H  0.39125512  0.72583593  0.20626407     0.13000
H661        H  0.39011687  0.78102428  0.20033531     0.13000
H662        H  0.49330989  0.73142332  0.22797421     0.26300
H663        H  0.49242434  0.78054346  0.22294439     0.26300
C664        C  0.34833044  0.86376806  0.27365603     0.30100
C665        C  0.38220394  0.89746546  0.21099327     0.30100
C666        C  0.33599077  0.87347559  0.21815255    -0.06100
C667        C  0.35595590  0.89221091  0.30110933    -0.06900
C668        C  0.37710890  0.85132807  0.25644841    -0.06700
C669        C  0.35316223  0.89091685  0.18643095    -0.06100
C670        C  0.37338246  0.90936454  0.26899589    -0.06900
C671        C  0.39437118  0.86827805  0.22422511    -0.06800
C672        C  0.33787255  0.89880638  0.14069226    -0.32100
N673        N  0.31266334  0.88556671  0.14222780     0.14400
C674        C  0.31099623  0.87068984  0.19021550    -0.32100
H675        H  0.29271552  0.85886506  0.20365043     0.16300
C676        C  0.37707242  0.93394607  0.29906745    -0.31100
N677        N  0.36295943  0.93220379  0.34871494     0.13100
C678        C  0.34941732  0.90704561  0.34969998    -0.31100
C679        C  0.41930427  0.85352533  0.21478712    -0.31400
N680        N  0.41764836  0.82816972  0.24106061     0.13600
H681        H  0.43747024  0.86090545  0.19119063     0.16200
C682        C  0.39184077  0.82689344  0.26688486    -0.31400
H683        H  0.38447232  0.80965643  0.29245486     0.16200
H684        H  0.33544717  0.90037501  0.38317360     0.16200
H685        H  0.34417514  0.91341053  0.10856136     0.16300
H686        H  0.38888855  0.95217291  0.28593367     0.16200
N687        N  0.11159665  0.50719452  0.42120854    -0.36500
N688        N  0.11528832  0.55141926  0.50653849    -0.57100
N689        N  0.11485076  0.50811232  0.59248901    -0.36500
N690        N  0.11629604  0.96394351  0.50645605    -0.57100
C691        C  0.11825704  0.53012416  0.39026660     0.27100
C692        C  0.11866637  0.98412897  0.39047618     0.27100
C693        C  0.12118272  0.53127620  0.62280288     0.27100
C694        C  0.12164917  0.98504924  0.62263156     0.27100
C695        C  0.10895959  0.56719889  0.46163692     0.35700
C696        C  0.11111380  0.56793803  0.55216559     0.35700
C697        C  0.10977645  0.94777810  0.46221250     0.35700
C698        C  0.11156454  0.94808433  0.55243894     0.35700
C699        C  0.13006967  0.52146126  0.33989917    -0.21800
C700        C  0.13029470  0.99255154  0.34001976    -0.21800
C701        C  0.13214517  0.52271955  0.67257720    -0.21800
C702        C  0.13245502  0.99376736  0.67246386    -0.21800
C703        C  0.10042395  0.59372523  0.47911224    -0.22800
C704        C  0.10194491  0.59423562  0.53605470    -0.22800
C705        C  0.10057759  0.92175786  0.48035928    -0.22800
C706        C  0.10176736  0.92192910  0.53724325    -0.22800
C707        C  0.11276733  0.55863125  0.40503456    -0.18200
C708        C  0.11364761  0.95569834  0.40563042    -0.18200
C709        C  0.11718467  0.95633740  0.60776461    -0.18200
C710        C  0.11642791  0.55994425  0.60796945    -0.18200
H711        H  0.13800980  0.53456576  0.30650756     0.14700
H712        H  0.13837913  0.97927841  0.30676548     0.14700
H713        H  0.13952224  0.53591677  0.70556384     0.14700
H714        H  0.14007080  0.98067979  0.70540282     0.14700
H715        H  0.09374777  0.61102694  0.45364494     0.13000
H716        H  0.09662929  0.61194468  0.56250971     0.13000
H717        H  0.09354342  0.90443136  0.45539812     0.13000
H718        H  0.09578264  0.90476419  0.56427035     0.13000
H719        H  0.10020790  0.50729596  0.45867711     0.26300
H720        H  0.10404390  0.50798160  0.55570870     0.26300
N721        N  0.36761026  0.50450966  0.40954278    -0.36500
N722        N  0.36877021  0.54775881  0.49540738    -0.57100
N723        N  0.36896404  0.50407985  0.57956296    -0.36500
N724        N  0.36309633  0.96070955  0.49424048    -0.57100
C725        C  0.36233782  0.52811875  0.38001774     0.27100
C726        C  0.35948383  0.98214736  0.37896620     0.27100
C727        C  0.36351583  0.52740298  0.61058731     0.27100
C728        C  0.36100485  0.98150129  0.61027664     0.27100
C729        C  0.37501145  0.56360915  0.45038694     0.35700
C730        C  0.37564764  0.56329443  0.53989027     0.35700
C731        C  0.36813312  0.94474498  0.44827303     0.35700
C732        C  0.36932950  0.94460116  0.53865251     0.35700
C733        C  0.35064916  0.52065824  0.33027714    -0.21800
C734        C  0.34877550  0.99175168  0.32967689    -0.21800
C735        C  0.35168743  0.51956733  0.66124525    -0.21800
C736        C  0.34998653  0.99066987  0.66097013    -0.21800
C737        C  0.38598191  0.58914592  0.46625771    -0.22800
C738        C  0.38641764  0.58893425  0.52306762    -0.22800
C739        C  0.37776902  0.91848899  0.46363022    -0.22800
C740        C  0.37860998  0.91842300  0.52060862    -0.22800
C741        C  0.36915956  0.55611036  0.39539989    -0.18200
C742        C  0.36322061  0.95329566  0.39282265    -0.18200
C743        C  0.36539611  0.95286941  0.59520387    -0.18200
C744        C  0.37040256  0.55542889  0.59552096    -0.18200
H745        H  0.34413558  0.53459328  0.29769059     0.14700
H746        H  0.34048915  0.97925520  0.29652065     0.14700
H747        H  0.34499719  0.53323709  0.69500427     0.14700
H748        H  0.34165055  0.97789341  0.69451520     0.14700
H749        H  0.39288771  0.60618845  0.43973131     0.13000
H750        H  0.39373170  0.60578714  0.54895383     0.13000
H751        H  0.38400693  0.90124597  0.43670301     0.13000
H752        H  0.38561490  0.90109102  0.54563322     0.13000
H753        H  0.37893258  0.50353840  0.44565965     0.26300
H754        H  0.38043771  0.50338569  0.54225474     0.26300
C755        C  0.10292649  0.89963234  0.78853970     0.30100
C756        C  0.13547947  0.86613459  0.72176263     0.30100
C757        C  0.13109416  0.89057752  0.81203811    -0.06100
C758        C  0.08927274  0.87127152  0.77222346    -0.06900
C759        C  0.11119760  0.91221900  0.73151288    -0.06700
C760        C  0.14756069  0.87299700  0.77930853    -0.06100
C761        C  0.10615446  0.85401797  0.73846237    -0.06900
C762        C  0.12817777  0.89532294  0.69770761    -0.06800
C763        C  0.17054421  0.86580325  0.81100693    -0.32100
N764        N  0.16892065  0.87982465  0.86024558     0.14400
C765        C  0.14467514  0.89494525  0.86116605    -0.32100
H766        H  0.13748092  0.90830523  0.89504901     0.16300
C767        C  0.09123801  0.82938999  0.73044277    -0.31100
N768        N  0.06552635  0.83132673  0.75657706     0.13100
C769        C  0.06414163  0.85694607  0.78201986    -0.31100
C770        C  0.13262551  0.90983145  0.64832194    -0.31400
N771        N  0.11833324  0.93481330  0.65083503     0.13600
H772        H  0.14504140  0.90250789  0.61287707     0.16200
C773        C  0.10481217  0.93603261  0.70128357    -0.31400
H774        H  0.09082444  0.95288483  0.71450958     0.16200
H775        H  0.04614707  0.86449814  0.80616752     0.16200
H776        H  0.18731331  0.85131085  0.79968187     0.16300
H777        H  0.09856723  0.81104749  0.70779036     0.16200
N778        N  0.03716491  0.75792765  0.75573214    -0.36500
N779        N  0.49466532  0.71280732  0.75236118    -0.57100
N780        N  0.45056331  0.75489826  0.74126498    -0.36500
N781        N  0.49283757  0.80007183  0.75508476    -0.57100
C782        C  0.05252429  0.73529201  0.77111492     0.27100
C783        C  0.05165286  0.78134421  0.76946509     0.27100
C784        C  0.43522457  0.73130508  0.75136923     0.27100
C785        C  0.43421635  0.77739129  0.75568179     0.27100
C786        C  0.01888775  0.69786699  0.74458271     0.35700
C787        C  0.47337331  0.69634925  0.73475815     0.35700
C788        C  0.01559122  0.81674053  0.74535299     0.35700
C789        C  0.46985717  0.81504952  0.74049276     0.35700
C790        C  0.07687980  0.74447008  0.79540207    -0.21800
C791        C  0.07635508  0.77343970  0.79426643    -0.21800
C792        C  0.40900305  0.73899025  0.77303335    -0.21800
C793        C  0.40839489  0.76791752  0.77583021    -0.21800
C794        C  0.01293668  0.67200267  0.72154635    -0.22800
C795        C  0.48428889  0.67112217  0.71499450    -0.22800
C796        C  0.00700884  0.84222609  0.72410937    -0.22800
C797        C  0.47818964  0.84114629  0.72091374    -0.22800
C798        C  0.04620185  0.70665584  0.76005203    -0.18200
C799        C  0.04388164  0.80955688  0.75730437    -0.18200
C800        C  0.44136682  0.80620733  0.74792395    -0.18200
C801        C  0.44411727  0.70313144  0.74010462    -0.18200
H802        H  0.09348845  0.73164314  0.81187036     0.14700
H803        H  0.09240053  0.78710133  0.80992834     0.14700
H804        H  0.39210742  0.72527379  0.78644532     0.14700
H805        H  0.39088744  0.78048454  0.79144113     0.14700
H806        H  0.02772228  0.65554098  0.70993117     0.13000
H807        H  0.47287939  0.65384186  0.69739714     0.13000
H808        H  0.02009996  0.85970690  0.71149653     0.13000
H809        H  0.46497678  0.85769239  0.70525599     0.13000
H810        H  0.01940544  0.75734781  0.73166210     0.26300
H811        H  0.47006718  0.75574885  0.72065060     0.26300
C812        C  0.35327960  0.64326082  0.71710541     0.30100
C813        C  0.38877276  0.61058074  0.77465288     0.30100
C814        C  0.36238957  0.61560668  0.68831391    -0.06100
C815        C  0.38218426  0.65710831  0.72940523    -0.06900
C816        C  0.34224311  0.63372786  0.77428796    -0.06700
C817        C  0.38067553  0.59905192  0.71733051    -0.06100
C818        C  0.40027160  0.64026903  0.75922083    -0.06900
C819        C  0.36001926  0.61685954  0.80387909    -0.06800
C820        C  0.38645285  0.57547056  0.68485496    -0.32100
N821        N  0.37133953  0.57684686  0.63822558     0.14400
C822        C  0.35697762  0.60157482  0.63936036    -0.32100
H823        H  0.34348809  0.60862258  0.60686026     0.16300
C824        C  0.42528385  0.65514971  0.76373021    -0.31100
N825        N  0.42308475  0.68062931  0.73896299     0.13100
C826        C  0.39715277  0.68157800  0.71624413    -0.31100
C827        C  0.34563783  0.61043978  0.85332222    -0.31400
N828        N  0.31979319  0.62333099  0.85432431     0.13600
H829        H  0.35347733  0.59738754  0.88612592     0.16200
C830        C  0.31784086  0.63767459  0.80590817    -0.31400
H831        H  0.29996508  0.65032859  0.79453763     0.16200
H832        H  0.39022507  0.69873042  0.69078366     0.16200
H833        H  0.40065561  0.55840320  0.69379719     0.16300
H834        H  0.44422780  0.64808472  0.78283876     0.16200
N835        N  0.24049279  0.88432854  0.08584558    -0.36500
N836        N  0.19738275  0.88347119  0.00298273    -0.57100
N837        N  0.24159438  0.88023839  0.91542890    -0.36500
N838        N  0.28473571  0.88575000  0.99808749    -0.57100
C839        C  0.21728184  0.89095029  0.11734993     0.23100
C840        C  0.26328490  0.89163253  0.11495474     0.27100
C841        C  0.21845284  0.88596090  0.88586163     0.27100
C842        C  0.26444687  0.88690884  0.88318374     0.27100
C843        C  0.18114163  0.87879603  0.04917971     0.35700
C844        C  0.18177734  0.87646090  0.95896371     0.35700
C845        C  0.30046118  0.88080954  0.04313021     0.35700
C846        C  0.30106495  0.87918101  0.95269102     0.35700
C847        C  0.22547458  0.90287571  0.16665411    -0.21800
C848        C  0.25445630  0.90327366  0.16516921    -0.21800
C849        C  0.22673577  0.89670013  0.83466822    -0.21800
C850        C  0.25568770  0.89726247  0.83297101    -0.21800
C851        C  0.15520106  0.86860971  0.03433009    -0.22800
C852        C  0.15560494  0.86714084  0.97733308    -0.22800
C853        C  0.32680098  0.87098657  0.02609993    -0.22800
C854        C  0.32719606  0.87002979  0.96907468    -0.22800
C855        C  0.18899675  0.88493268  0.10432928    -0.18200
C856        C  0.29179672  0.88614679  0.09925916    -0.18200
C857        C  0.29298328  0.88240151  0.89665210    -0.18200
C858        C  0.19013642  0.88025540  0.90243958    -0.18200
H859        H  0.21199842  0.91038460  0.20043281     0.14700
H860        H  0.26754210  0.91109809  0.19761402     0.14700
H861        H  0.21335310  0.90350244  0.80178282     0.14700
H862        H  0.26875947  0.90455513  0.79859408     0.14700
H863        H  0.13777443  0.86275247  0.06158355     0.13000
H864        H  0.13852096  0.86003555  0.95234491     0.13000
H865        H  0.34394808  0.86479193  0.05190778     0.13000
H866        H  0.34465922  0.86298977  0.94283610     0.13000
H867        H  0.24090731  0.87248706  0.04956576     0.26300
H868        H  0.24181860  0.86949104  0.95292308     0.26300
N869        N  0.24619734  0.62610656  0.08815387    -0.36500
N870        N  0.29024400  0.62220213  0.00049802    -0.57100
N871        N  0.24632494  0.62586138  0.91669599    -0.36500
N872        N  0.20232032  0.62413672  0.00416296    -0.57100
C873        C  0.26926244  0.61975231  0.11783910     0.27100
C874        C  0.22299552  0.61995846  0.12006398     0.27100
C875        C  0.26944260  0.61865850  0.88509290     0.27100
C876        C  0.22312112  0.62050454  0.88667160     0.27100
C877        C  0.30607222  0.62870434  0.04462817     0.35700
C878        C  0.30624128  0.62777873  0.95434681     0.35700
C879        C  0.18643031  0.62999520  0.05055308     0.35700
C880        C  0.18646046  0.63074096  0.95995660     0.35700
C881        C  0.26051435  0.60926519  0.16895228    -0.21800
C882        C  0.23148376  0.60940817  0.17035151    -0.21800
C883        C  0.26071562  0.60833644  0.83475915    -0.21800
C884        C  0.23169424  0.60952520  0.83572556    -0.21800
C885        C  0.33199304  0.63867696  0.02628317    -0.22800
C886        C  0.33212402  0.63802413  0.96935514    -0.22800
C887        C  0.16054862  0.64051139  0.03559202    -0.22800
C888        C  0.16060720  0.64108704  0.97862331    -0.22800
C889        C  0.29793445  0.62458075  0.10121373    -0.18200
C890        C  0.19440641  0.62496520  0.10626023    -0.18200
C891        C  0.19450527  0.62638815  0.90304367    -0.18200
C892        C  0.29820435  0.62290367  0.89883621    -0.18200
H893        H  0.27364660  0.60207857  0.20192712     0.14700
H894        H  0.21817622  0.60240203  0.20461956     0.14700
H895        H  0.27387243  0.60068617  0.80063549     0.14700
H896        H  0.21845284  0.60283934  0.80258743     0.14700
H897        H  0.34899131  0.64609122  0.05112437     0.13000
H898        H  0.34922541  0.64486279  0.94224842     0.13000
H899        H  0.14346899  0.64757031  0.06278127     0.13000
H900        H  0.14358111  0.64872971  0.95398959     0.13000
H901        H  0.24628682  0.63672208  0.05057063     0.26300
H902        H  0.24650224  0.63658611  0.95422923     0.26300
C903        C  0.38311095  0.89672227  0.77565617     0.30100
C904        C  0.35047922  0.86408007  0.71365600     0.30100
C905        C  0.35389582  0.89003340  0.80186339    -0.06100
C906        C  0.37564030  0.90929496  0.71856377    -0.06900
C907        C  0.39537779  0.86764885  0.76137664    -0.06700
C908        C  0.33731883  0.87266036  0.77088230    -0.06100
C909        C  0.35905996  0.89221929  0.68728680    -0.06900
C910        C  0.37894490  0.85065516  0.72944125    -0.06800
C911        C  0.31319742  0.86734948  0.80314137    -0.32100
N912        N  0.31437342  0.88180489  0.85194115     0.14400
C913        C  0.33910950  0.89600352  0.85092611    -0.32100
H914        H  0.34584832  0.90966371  0.88375590     0.16300
C915        C  0.35332355  0.90620279  0.63859042    -0.31100
N916        N  0.36599461  0.93169572  0.63887559     0.13100
C917        C  0.37913335  0.93397762  0.68810565    -0.31100
C918        C  0.39389288  0.82561276  0.72209937    -0.31400
N919        N  0.41894743  0.82733572  0.74811394     0.13600
H920        H  0.38714241  0.80736435  0.69949211     0.16200
C921        C  0.41963754  0.85298039  0.77297365    -0.31400
H922        H  0.43665292  0.86055432  0.79764471     0.16200
H923        H  0.38969627  0.95280260  0.70089401     0.16200
H924        H  0.29611212  0.85371066  0.79219593     0.16300
H925        H  0.34040524  0.89851231  0.60575083     0.16200
C926        C  0.38803635  0.61307785  0.21601137     0.30100
C927        C  0.35159886  0.64476055  0.27875656     0.30100
C928        C  0.37919099  0.60025073  0.27325218    -0.06100
C929        C  0.39883810  0.64225050  0.23307204    -0.06900
C930        C  0.35950354  0.61973512  0.18957347    -0.06700
C931        C  0.36025773  0.61644181  0.30475493    -0.06100
C932        C  0.38053659  0.65844625  0.26555052    -0.06900
C933        C  0.34124013  0.63605809  0.22166353    -0.06800
C934        C  0.35488790  0.60219851  0.35403572    -0.32100
N935        N  0.36977767  0.57782856  0.35335836     0.14400
C936        C  0.38556200  0.57706812  0.30588130    -0.32100
H937        H  0.40137376  0.56112197  0.29858363     0.16300
C938        C  0.39507746  0.68273177  0.27872219    -0.31100
N939        N  0.42095985  0.68216308  0.25306908     0.13100
C940        C  0.42349567  0.65729440  0.22571123    -0.31100
C941        C  0.31690895  0.63972614  0.19252204    -0.31400
N942        N  0.31937601  0.62566976  0.14344650     0.13600
H943        H  0.29863148  0.65174131  0.20627510     0.16200
C944        C  0.34543745  0.61327061  0.14151085    -0.31400
H945        H  0.35352570  0.60023923  0.10787819     0.16200
H946        H  0.44207727  0.65068720  0.20221958     0.16200
H947        H  0.34146167  0.60902563  0.38840417     0.16300
H948        H  0.38776533  0.69955130  0.30565418     0.16200
C949        C  0.13695342  0.64852893  0.72803220     0.30100
C950        C  0.10282134  0.61533476  0.79128468     0.30100
C951        C  0.14977812  0.63800550  0.78288549    -0.06100
C952        C  0.10872132  0.66184940  0.74727345    -0.06900
C953        C  0.12784223  0.62060053  0.70005266    -0.06700
C954        C  0.13220926  0.62141541  0.81574845    -0.06100
C955        C  0.09139760  0.64523443  0.78015285    -0.06900
C956        C  0.11011106  0.60408234  0.73257180    -0.06800
C957        C  0.14679341  0.61573832  0.86391855    -0.32100
N958        N  0.17291816  0.62744591  0.86065763     0.14400
C959        C  0.17488297  0.64087477  0.81087901    -0.32100
H960        H  0.19331680  0.65215314  0.79634533     0.16300
C961        C  0.06694991  0.66073041  0.79093335    -0.31100
N962        N  0.06858019  0.68570728  0.76366635     0.13100
C963        C  0.09422972  0.68658597  0.73714740    -0.31100
C964        C  0.10353422  0.58049031  0.70180534    -0.31400
N965        N  0.11717979  0.58154797  0.65140483     0.13600
H966        H  0.08994570  0.56357272  0.71550620     0.16200
C967        C  0.13235249  0.60586733  0.65035522    -0.31400
H968        H  0.14618651  0.61198465  0.61623584     0.16200
H969        H  0.10145582  0.70355959  0.71074519     0.16200
H970        H  0.13887586  0.60436031  0.89966876     0.16300
H971        H  0.04888812  0.65420866  0.81578765     0.16200
C972        C  0.13193248  0.86694339  0.28531965     0.30100
C973        C  0.09794530  0.89947880  0.22462791     0.30100
C974        C  0.14427005  0.87604913  0.22848602    -0.06100
C975        C  0.10336615  0.85345547  0.27085971    -0.06900
C976        C  0.12253885  0.89491789  0.31301157    -0.06700
C977        C  0.12721380  0.89308969  0.19734026    -0.06100
C978        C  0.08653349  0.87017141  0.23863811    -0.06900
C979        C  0.10558426  0.91180258  0.28178401    -0.06800
C980        C  0.14254059  0.89919307  0.14885636    -0.32100
N981        N  0.16758743  0.88520272  0.14881110     0.14400
C982        C  0.16884667  0.87116413  0.19773087    -0.32100
H983        H  0.18626337  0.85807100  0.20985261     0.16300
C984        C  0.06248157  0.85528427  0.22739067    -0.31100
N985        N  0.06346600  0.83009453  0.25363374     0.13100
C986        C  0.08789080  0.82920565  0.28164120    -0.31100
C987        C  0.10046506  0.93614917  0.31261587    -0.31400
N988        N  0.11340667  0.93423788  0.36215049     0.13600
H989        H  0.08837149  0.95416483  0.29980653     0.16200
C990        C  0.12690996  0.90897383  0.36254835    -0.31400
H991        H  0.13937540  0.90154313  0.39630539     0.16200
H992        H  0.09316154  0.81224893  0.30905653     0.16200
H993        H  0.13636033  0.91301893  0.11592265     0.16300
H994        H  0.04548928  0.86232786  0.20194299     0.16200
O995        O  0.01290708  0.53366573  0.09067147    -0.80000
O996        O  0.47158775  0.51211311  0.86877377    -0.80100
O997        O  0.02226205  0.54638907  0.96145216    -0.80100
O998        O  0.44724039  0.54453635  0.04047556    -0.80000
O999        O  0.02517797  0.51644431  0.89115896    -0.80100
O1000       O  0.48608955  0.53665007  0.08755025    -0.80000
O1001       O  0.46064721  0.54373147  0.93270121    -0.80000
O1002       O  0.05484858  0.53089165  0.04680582    -0.80100
C1003       C  0.03905875  0.54165212  0.08415381     1.09700
C1004       C  0.46275155  0.53651048  0.88284941     1.09500
C1005       C  0.02914556  0.54069881  0.91173116     1.09700
C1006       C  0.46378942  0.55093064  0.07786579     1.09600
O1007       O  0.45616592  0.99634055  0.10127859    -0.80000
O1008       O  0.02259501  0.96215168  0.95140481    -0.80100
O1009       O  0.03211056  0.97948836  0.06050074    -0.80000
O1010       O  0.43527676  0.98929858  0.92444660    -0.80000
O1011       O  0.46926710  0.95864054  0.93104095    -0.80100
O1012       O  0.00466518  0.98509765  0.13514736    -0.80000
O1013       O  0.43009623  0.98650168  0.03223918    -0.80000
O1014       O  0.05296092  0.99469148  0.96245775    -0.80100
Co1015     Co  0.49314742  0.49637937  0.06476294     1.51500
Co1016     Co  0.49685780  0.48715415  0.91387306     1.51700
Co1017     Co  0.02443468  0.51458657  0.01188304     1.51600
Co1018     Co  0.44570664  0.51607397  0.98307478     1.51500
O1019       O  0.48644418  0.50388941  0.98677773    -1.42000
C1020       C  0.43712559  0.98206786  0.08110759     1.09600
C1021       C  0.04754926  0.96993324  0.94796944     1.09700
C1022       C  0.02500335  0.97287808  0.11051901     1.09600
C1023       C  0.44489941  0.96478558  0.91800027     1.09600
O1024       O  0.26889924  0.70349451  0.45960872    -0.80000
O1025       O  0.25744402  0.81591492  0.54765125    -0.80100
O1026       O  0.25506212  0.77953415  0.38124220    -0.80100
O1027       O  0.28610115  0.72738728  0.56728301    -0.80000
O1028       O  0.27138057  0.79960356  0.45264390    -0.80100
O1029       O  0.25481277  0.69465859  0.56202706    -0.80000
O1030       O  0.28811271  0.78288981  0.56223169    -0.80000
O1031       O  0.25438344  0.72496560  0.38703101    -0.80100
C1032       C  0.27065352  0.70787946  0.40884766     1.09700
C1033       C  0.28132384  0.80833452  0.56374961     1.09500
C1034       C  0.27321142  0.79478178  0.40233362     1.09700
C1035       C  0.27818172  0.70313784  0.57929782     1.09600
O1036       O  0.20309351  0.72677315  0.54940802    -0.80000
O1037       O  0.22023845  0.82426518  0.46448087    -0.80100
O1038       O  0.20109358  0.72491771  0.44851328    -0.80000
O1039       O  0.23214061  0.78620405  0.61334524    -0.80000
O1040       O  0.20383506  0.78647281  0.54424610    -0.80100
O1041       O  0.21655929  0.68380924  0.47741253    -0.80000
O1042       O  0.23018598  0.73046747  0.61973594    -0.80000
O1043       O  0.20120259  0.78391829  0.44110305    -0.80100
Co1044     Co  0.23572206  0.71618498  0.50193322     1.51500
Co1045     Co  0.23703608  0.79190928  0.49450620     1.51700
Co1046     Co  0.22966427  0.75340784  0.42256967     1.51600
Co1047     Co  0.25909404  0.75655629  0.58576573     1.51500
O1048       O  0.24997120  0.75415280  0.50382154    -1.42000
C1049       C  0.20672834  0.72390278  0.60006676     1.09600
C1050       C  0.20355633  0.81056708  0.43475081     1.09700
C1051       C  0.20224510  0.69811462  0.44366831     1.09600
C1052       C  0.20860906  0.79255645  0.59356145     1.09600
C1053       C  0.06000687  0.93467688  0.10786387    -0.13200
C1054       C  0.04050507  0.95111134  0.13815327     0.08900
C1055       C  0.03667870  0.94713188  0.19513120    -0.13200
C1056       C  0.05451411  0.92919671  0.22236678    -0.13200
C1057       C  0.07712971  0.91627988  0.19335827     0.08900
C1058       C  0.07776093  0.91674345  0.13537708    -0.13200
H1059       H  0.06186207  0.93600443  0.06314269     0.12900
H1060       H  0.02062428  0.95849740  0.21883521     0.12900
H1061       H  0.05106293  0.92608857  0.26637149     0.12900
H1062       H  0.09159287  0.90327742  0.11108174     0.12900
C1063       C  0.15078310  0.82183766  0.32586410    -0.13200
C1064       C  0.15269887  0.85084152  0.31822472     0.08900
C1065       C  0.17498013  0.86545533  0.34185394    -0.13200
C1066       C  0.19128020  0.85257582  0.38103546    -0.13200
C1067       C  0.18645663  0.82448110  0.39444338     0.08900
C1068       C  0.16708034  0.80880799  0.36478164    -0.13200
H1069       H  0.13754764  0.80894711  0.30119553     0.12900
H1070       H  0.17883329  0.88729432  0.33206221     0.12900
H1071       H  0.20748419  0.86455140  0.40079969     0.12900
H1072       H  0.16459140  0.78645769  0.37129749     0.12900
C1073       C  0.17028024  0.68963158  0.72139142    -0.13200
C1074       C  0.15434270  0.66912252  0.69450297     0.08900
C1075       C  0.15108653  0.67149668  0.63717149    -0.13200
C1076       C  0.16698421  0.69070616  0.60666032    -0.13200
C1077       C  0.18590558  0.70838605  0.63320991     0.08900
C1078       C  0.18674682  0.70843963  0.69093518    -0.13200
H1079       H  0.17016139  0.69121406  0.76599213     0.12900
H1080       H  0.13614913  0.65880689  0.61569197     0.12900
H1081       H  0.16523325  0.69091201  0.56205785     0.12900
H1082       H  0.20035042  0.72273235  0.71235495     0.12900
C1083       C  0.05416018  0.59619019  0.81317919    -0.13200
C1084       C  0.08323173  0.59599389  0.82306610     0.08900
C1085       C  0.09398171  0.57480807  0.85687366    -0.13200
C1086       C  0.07595049  0.55754048  0.88709180    -0.13200
C1087       C  0.04696528  0.55998166  0.88128310     0.08900
C1088       C  0.03600622  0.57862127  0.84301842    -0.13200
H1089       H  0.04545374  0.60948049  0.78173660     0.12900
H1090       H  0.11621092  0.57064080  0.85862782     0.12900
H1091       H  0.08463684  0.54171694  0.91395377     0.12900
H1092       H  0.01368579  0.57922633  0.83566139     0.12900
C1093       C  0.41608158  0.56931166  0.18994793    -0.13200
C1094       C  0.40885676  0.59718006  0.17911328     0.08900
C1095       C  0.42213104  0.61061888  0.13356817    -0.13200
C1096       C  0.44358209  0.59702806  0.10307032    -0.13200
C1097       C  0.45242945  0.57020416  0.11881828     0.08900
C1098       C  0.43906782  0.55688157  0.16361161    -0.13200
H1099       H  0.40271795  0.55593193  0.21443077     0.12900
H1100       H  0.41562924  0.63145321  0.12128966     0.12900
H1101       H  0.45215938  0.60666655  0.06573709     0.12900
H1102       H  0.44358636  0.53510427  0.17290725     0.12900
C1103       C  0.30989429  0.70646877  0.34023833    -0.13200
C1104       C  0.29056945  0.69231750  0.37449660     0.08900
C1105       C  0.28898390  0.66311828  0.37307459    -0.13200
C1106       C  0.30788867  0.64799172  0.33983775    -0.13200
C1107       C  0.32996765  0.66173475  0.31120296     0.08900
C1108       C  0.32931722  0.69120938  0.30812310    -0.13200
H1109       H  0.31003226  0.72920083  0.33869510     0.12900
H1110       H  0.27276311  0.65214681  0.39670622     0.12900
H1111       H  0.30519307  0.62553912  0.33676129     0.12900
H1112       H  0.34318842  0.70255126  0.28015422     0.12900
C1113       C  0.28756967  0.84622579  0.63003894    -0.13200
C1114       C  0.29943843  0.82718984  0.59211476     0.08900
C1115       C  0.32822876  0.82137592  0.59157569    -0.13200
C1116       C  0.34468149  0.83271329  0.63198856    -0.13200
C1117       C  0.33224825  0.84871939  0.67505842     0.08900
C1118       C  0.30394697  0.85702915  0.67130020    -0.13200
H1119       H  0.26541937  0.85145046  0.62975343     0.12900
H1120       H  0.33772501  0.80727313  0.56104585     0.12900
H1121       H  0.36709073  0.82937583  0.62839698     0.12900
H1122       H  0.29453529  0.87227408  0.69949099     0.12900
C1123       C  0.40324744  0.90533241  0.86832600    -0.13200
C1124       C  0.40189027  0.91266966  0.81205491     0.08900
C1125       C  0.41962361  0.93352192  0.79058722    -0.13200
C1126       C  0.43331865  0.95091690  0.82620707    -0.13200
C1127       C  0.43101884  0.94598125  0.88288744     0.08900
C1128       C  0.41757583  0.92235846  0.90416452    -0.13200
H1129       H  0.39244540  0.88708235  0.88474321     0.12900
H1130       H  0.42359570  0.93614027  0.74687440     0.12900
H1131       H  0.44593693  0.96800550  0.80967324     0.12900
H1132       H  0.41762389  0.91759973  0.94797497     0.12900
C1133       C  0.42962795  0.60152263  0.83694973    -0.13200
C1134       C  0.40768500  0.59115112  0.80570040     0.08900
C1135       C  0.40423848  0.56193367  0.80172351    -0.13200
C1136       C  0.42510826  0.54384611  0.81919155    -0.13200
C1137       C  0.44846162  0.55469685  0.84538210     0.08900
C1138       C  0.45050289  0.58363712  0.85460673    -0.13200
H1139       H  0.42997189  0.62307415  0.85047676     0.12900
H1140       H  0.38549242  0.55303947  0.78464101     0.12900
H1141       H  0.42180268  0.52139094  0.81672023     0.12900
H1142       H  0.46686049  0.59203355  0.88009173     0.12900
C1143       C  0.33190208  0.68851811  0.68448822    -0.13200
C1144       C  0.33140544  0.65930674  0.68670180     0.08900
C1145       C  0.30890923  0.64494875  0.66265005    -0.13200
C1146       C  0.29102353  0.65893167  0.62735150    -0.13200
C1147       C  0.29472167  0.68759969  0.61852515     0.08900
C1148       C  0.31415269  0.70252857  0.64974862    -0.13200
H1149       H  0.34549448  0.70071921  0.70990132     0.12900
H1150       H  0.30586903  0.62270978  0.66939573     0.12900
H1151       H  0.27496067  0.64738427  0.60624571     0.12900
H1152       H  0.31576844  0.72517037  0.64728945     0.12900
C1153       C  0.07349457  0.90639361  0.87528740    -0.13200
C1154       C  0.08798622  0.91846190  0.82990980     0.08900
C1155       C  0.09530366  0.94708428  0.83302326    -0.13200
C1156       C  0.08456239  0.96395729  0.87577142    -0.13200
C1157       C  0.06722053  0.95216698  0.91700496     0.08900
C1158       C  0.06286162  0.92314181  0.91803238    -0.13200
H1159       H  0.07068092  0.88397336  0.87844092     0.12900
H1160       H  0.10956634  0.95651094  0.80293423     0.12900
H1161       H  0.08838302  0.98635259  0.87472364     0.12900
H1162       H  0.04996620  0.91365267  0.95055712     0.12900
C1163       C  0.20085464  0.83082397  0.66042489    -0.13200
C1164       C  0.18945881  0.81116770  0.62448495     0.08900
C1165       C  0.16068113  0.81209573  0.61390025    -0.13200
C1166       C  0.14317135  0.83085963  0.64321260    -0.13200
C1167       C  0.15425639  0.84847167  0.68388406     0.08900
C1168       C  0.18357015  0.85017133  0.68760288    -0.13200
H1169       H  0.22327843  0.83178507  0.66634590     0.12900
H1170       H  0.15179278  0.79823711  0.58350845     0.12900
H1171       H  0.12110255  0.83154011  0.63397365     0.12900
H1172       H  0.19332406  0.86632309  0.71176664     0.12900
C1173       C  0.31451890  0.82303660  0.28069622    -0.13200
C1174       C  0.33081731  0.84339046  0.30708605     0.08900
C1175       C  0.33294274  0.84222547  0.36473063    -0.13200
C1176       C  0.31492021  0.82529659  0.39572039    -0.13200
C1177       C  0.29528896  0.80840868  0.36925992     0.08900
C1178       C  0.29616449  0.80621065  0.31154260    -0.13200
H1179       H  0.31553582  0.82037226  0.23626602     0.12900
H1180       H  0.34829525  0.85446476  0.38611783     0.12900
H1181       H  0.31582977  0.82608146  0.44045514     0.12900
H1182       H  0.28226335  0.79212851  0.29034221     0.12900
C1183       C  0.39952602  0.91547643  0.11763215    -0.13200
C1184       C  0.40143130  0.91548974  0.17552057     0.08900
C1185       C  0.42040814  0.93386455  0.19976363    -0.13200
C1186       C  0.43157043  0.95601186  0.16923949    -0.13200
C1187       C  0.42513254  0.95898270  0.11324149     0.08900
C1188       C  0.41031119  0.93774180  0.08687493    -0.13200
H1189       H  0.38886898  0.89885585  0.09629229     0.12900
H1190       H  0.42589210  0.93173235  0.24264327     0.12900
H1191       H  0.44494480  0.97091872  0.18961304     0.12900
H1192       H  0.40718427  0.93826187  0.04267958     0.12900
C1193       C  0.17654463  0.64514884  0.34369423    -0.13200
C1194       C  0.15507671  0.66059698  0.31867941     0.08900
C1195       C  0.15325577  0.68949240  0.32768684    -0.13200
C1196       C  0.16843835  0.70157644  0.36922046    -0.13200
C1197       C  0.18662961  0.68504209  0.40029506     0.08900
C1198       C  0.19168972  0.65707942  0.38569673    -0.13200
H1199       H  0.18031130  0.62331504  0.33316169     0.12900
H1200       H  0.14073925  0.70295351  0.30251018     0.12900
H1201       H  0.16584986  0.72386190  0.37692970     0.12900
H1202       H  0.20710997  0.64451996  0.40673705     0.12900
C1203       C  0.05911790  0.58213585  0.20825586    -0.13200
C1204       C  0.08121526  0.59812317  0.18504488     0.08900
C1205       C  0.08318101  0.60114335  0.12729534    -0.13200
C1206       C  0.06842389  0.58325967  0.09376944    -0.13200
C1207       C  0.04989892  0.56388151  0.11784531     0.08900
C1208       C  0.04366964  0.56466809  0.17465867    -0.13200
H1209       H  0.05413495  0.58260006  0.25213308     0.12900
H1210       H  0.09676361  0.61658025  0.10789921     0.12900
H1211       H  0.07199276  0.58400374  0.04928236     0.12900
H1212       H  0.02818034  0.55070748  0.19322394     0.12900
C1213       C  0.60091004  0.11390565  0.22092671     0.30100
C1214       C  0.63458082  0.14538416  0.28398769     0.30100
C1215       C  0.63109263  0.11887251  0.19644213    -0.06100
C1216       C  0.59002722  0.14374978  0.23394342    -0.06900
C1217       C  0.60671271  0.10159863  0.27920079    -0.06700
C1218       C  0.64791099  0.13544644  0.22846260    -0.06100
C1219       C  0.60673914  0.15994656  0.26729513    -0.06900
C1220       C  0.62367785  0.11806442  0.31126356    -0.06800
C1221       C  0.67320991  0.13927900  0.19934463    -0.32100
N1222       N  0.67262261  0.12496705  0.15044773     0.14400
C1223       C  0.64719316  0.11188877  0.14916466    -0.32100
H1224       H  0.64090334  0.09842514  0.11568997     0.16300
C1225       C  0.59105341  0.18411028  0.27982111    -0.31100
N1226       N  0.56650201  0.18364255  0.25220451     0.13100
C1227       C  0.56567443  0.15880612  0.22438231    -0.31100
C1228       C  0.62694475  0.10443095  0.36138860    -0.31400
N1229       N  0.61282367  0.07973790  0.36105296     0.13600
H1230       H  0.63924933  0.11165442  0.39549013     0.16200
C1231       C  0.60055564  0.07773226  0.31070532    -0.31400
H1232       H  0.58859656  0.05978429  0.29765760     0.16200
H1233       H  0.54829977  0.15185938  0.19997751     0.16200
H1234       H  0.69053536  0.15209362  0.21237490     0.16300
H1235       H  0.59605980  0.20043334  0.30891349     0.16200
N1236       N  0.99326494  0.21286961  0.25057558    -0.36500
N1237       N  0.53573700  0.25658173  0.25462675    -0.57100
N1238       N  0.99127927  0.29951128  0.24434664    -0.36500
N1239       N  0.94857601  0.25576428  0.25059625    -0.57100
C1240       C  0.51631915  0.19762276  0.26374820     0.27100
C1241       C  0.97027821  0.19727476  0.26404545     0.27100
C1242       C  0.51350220  0.31532132  0.25924194     0.27100
C1243       C  0.96756663  0.31486919  0.25494660     0.27100
C1244       C  0.55254728  0.23391760  0.24415249     0.35700
C1245       C  0.55141083  0.27969887  0.24320416     0.35700
C1246       C  0.93343909  0.23231018  0.24063300     0.35700
C1247       C  0.93248270  0.27799037  0.23574154     0.35700
C1248       C  0.50786004  0.17219302  0.28617533    -0.21800
C1249       C  0.97888171  0.17199912  0.28649690    -0.21800
C1250       C  0.50372269  0.34084187  0.27990777    -0.21800
C1251       C  0.97483823  0.34057250  0.27711349    -0.21800
C1252       C  0.57888206  0.24273638  0.22576277    -0.22800
C1253       C  0.57816536  0.27161920  0.22514822    -0.22800
C1254       C  0.90778754  0.23970806  0.21905399    -0.22800
C1255       C  0.90720228  0.26853633  0.21589244    -0.22800
C1256       C  0.54478448  0.20542600  0.25327809    -0.18200
C1257       C  0.94188759  0.20437619  0.25302721    -0.18200
C1258       C  0.93964601  0.30671066  0.24311620    -0.18200
C1259       C  0.54241654  0.30798536  0.25182591    -0.18200
H1260       H  0.52115511  0.15547686  0.30093862     0.14700
H1261       H  0.96568207  0.15504623  0.30143830     0.14700
H1262       H  0.51604971  0.35792069  0.29578879     0.14700
H1263       H  0.96081800  0.35735201  0.29056167     0.14700
H1264       H  0.59674994  0.22979287  0.21349763     0.13000
H1265       H  0.59538657  0.28506252  0.21225831     0.13000
H1266       H  0.89125428  0.22583526  0.20626290     0.13000
H1267       H  0.89011635  0.28102367  0.20033358     0.13000
H1268       H  0.99330887  0.23142172  0.22797231     0.26300
H1269       H  0.99242357  0.28054189  0.22294238     0.26300
C1270       C  0.84832964  0.36376724  0.27365533     0.30100
C1271       C  0.88220322  0.39746461  0.21099272     0.30100
C1272       C  0.83599031  0.37347407  0.21815094    -0.06100
C1273       C  0.85595437  0.39221050  0.30110805    -0.06900
C1274       C  0.87710848  0.35132750  0.25644921    -0.06700
C1275       C  0.85316186  0.39091521  0.18642921    -0.06100
C1276       C  0.87338082  0.40936416  0.26899451    -0.06900
C1277       C  0.89437084  0.36827751  0.22422621    -0.06800
C1278       C  0.83787237  0.39880416  0.14068976    -0.32100
N1279       N  0.81266309  0.38556453  0.14222531     0.14400
C1280       C  0.81099586  0.37068807  0.19021349    -0.32100
H1281       H  0.79271502  0.35886351  0.20364860     0.16300
C1282       C  0.87707020  0.43394605  0.29906535    -0.31100
N1283       N  0.86295726  0.43220387  0.34871290     0.13100
C1284       C  0.84941565  0.40704536  0.34969856    -0.31100
C1285       C  0.91930395  0.35352477  0.21478831    -0.31400
N1286       N  0.91764797  0.32816900  0.24106126     0.13600
H1287       H  0.93746987  0.36090479  0.19119149     0.16200
C1288       C  0.89184030  0.32689270  0.26688533    -0.31400
H1289       H  0.88447163  0.30965544  0.29245439     0.16200
H1290       H  0.83544600  0.40037445  0.38317276     0.16200
H1291       H  0.84417510  0.41340809  0.10855856     0.16300
H1292       H  0.88888616  0.45217294  0.28593125     0.16200
N1293       N  0.61159828  0.00719488  0.42121307    -0.36500
N1294       N  0.61528990  0.05141898  0.50654189    -0.57100
N1295       N  0.61485257  0.00811153  0.59249289    -0.36500
N1296       N  0.61629482  0.46394369  0.50645121    -0.57100
C1297       C  0.61825934  0.03012432  0.39027110     0.27100
C1298       C  0.61866474  0.48412868  0.39047106     0.27100
C1299       C  0.62118462  0.03127551  0.62280616     0.27100
C1300       C  0.62164685  0.48504984  0.62262767     0.27100
C1301       C  0.60896130  0.06719888  0.46164055     0.35700
C1302       C  0.61111461  0.06793728  0.55216927     0.35700
C1303       C  0.60977566  0.44777793  0.46220780     0.35700
C1304       C  0.61156273  0.44808485  0.55243430     0.35700
C1305       C  0.63007269  0.02146121  0.33990445    -0.21800
C1306       C  0.63029210  0.49255159  0.34001409    -0.21800
C1307       C  0.63214784  0.02271918  0.67257999    -0.21800
C1308       C  0.63245213  0.49376774  0.67246062    -0.21800
C1309       C  0.60042511  0.09372495  0.47911622    -0.22800
C1310       C  0.60194533  0.09423484  0.53605883    -0.22800
C1311       C  0.60057645  0.42175789  0.48035483    -0.22800
C1312       C  0.60176555  0.42192957  0.53723884    -0.22800
C1313       C  0.61276936  0.05863141  0.40503827    -0.18200
C1314       C  0.61364704  0.45569783  0.40562564    -0.18200
C1315       C  0.61718258  0.45633799  0.60776005    -0.18200
C1316       C  0.61642893  0.05994337  0.60797290    -0.18200
H1317       H  0.63801333  0.03456557  0.30651308     0.14700
H1318       H  0.63837632  0.47927873  0.30675921     0.14700
H1319       H  0.63952504  0.03591664  0.70556615     0.14700
H1320       H  0.64006751  0.48068004  0.70539972     0.14700
H1321       H  0.59374903  0.11102677  0.45364913     0.13000
H1322       H  0.59662915  0.11194361  0.56251421     0.13000
H1323       H  0.59354235  0.40443131  0.45539381     0.13000
H1324       H  0.59578043  0.40476489  0.56426617     0.13000
H1325       H  0.60020882  0.00729638  0.45868104     0.26300
H1326       H  0.60404516  0.00798075  0.55571312     0.26300
N1327       N  0.86761252  0.00450946  0.40954469    -0.36500
N1328       N  0.86877228  0.04775843  0.49540901    -0.57100
N1329       N  0.86896447  0.00407939  0.57956500    -0.36500
N1330       N  0.86309583  0.46070974  0.49423826    -0.57100
C1331       C  0.86234050  0.02811851  0.38001923     0.27100
C1332       C  0.85948145  0.48214751  0.37896445     0.27100
C1333       C  0.86351685  0.02740269  0.61058915     0.27100
C1334       C  0.86100507  0.48150148  0.61027455     0.27100
C1335       C  0.87501341  0.06360896  0.45038874     0.35700
C1336       C  0.87564974  0.06329390  0.53989203     0.35700
C1337       C  0.86813242  0.44474527  0.44827058     0.35700
C1338       C  0.86933009  0.44460159  0.53864995     0.35700
C1339       C  0.85065246  0.02065799  0.33027809    -0.21800
C1340       C  0.84877237  0.49175186  0.32967583    -0.21800
C1341       C  0.85168804  0.01956742  0.66124697    -0.21800
C1342       C  0.84998673  0.49066973  0.66096825    -0.21800
C1343       C  0.88598375  0.08914571  0.46625971    -0.22800
C1344       C  0.88641969  0.08893379  0.52306958    -0.22800
C1345       C  0.87776929  0.41848956  0.46362728    -0.22800
C1346       C  0.87861107  0.41842368  0.52060563    -0.22800
C1347       C  0.86916184  0.05611017  0.39540156    -0.18200
C1348       C  0.86321877  0.45329580  0.39282059    -0.18200
C1349       C  0.86539692  0.45286968  0.59520148    -0.18200
C1350       C  0.87040443  0.05542837  0.59552268    -0.18200
H1351       H  0.84413922  0.03459298  0.29769119     0.14700
H1352       H  0.84048578  0.47925530  0.29651996     0.14700
H1353       H  0.84499810  0.03323742  0.69500584     0.14700
H1354       H  0.84165114  0.47789303  0.69451332     0.14700
H1355       H  0.89288946  0.10618834  0.43973346     0.13000
H1356       H  0.89373378  0.10578664  0.54895591     0.13000
H1357       H  0.88400724  0.40124666  0.43669979     0.13000
H1358       H  0.88561674  0.40109190  0.54562997     0.13000
H1359       H  0.87893435  0.00353811  0.44566227     0.26300
H1360       H  0.88043833  0.00338490  0.54225717     0.26300
C1361       C  0.60292607  0.39963302  0.78853552     0.30100
C1362       C  0.63547956  0.36613558  0.72175823     0.30100
C1363       C  0.63109433  0.39057951  0.81203286    -0.06100
C1364       C  0.58927331  0.37127159  0.77222114    -0.06900
C1365       C  0.61119609  0.41221934  0.73150789    -0.06700
C1366       C  0.64756118  0.37299919  0.77930334    -0.06100
C1367       C  0.60615511  0.35401816  0.73845995    -0.06900
C1368       C  0.62817656  0.39532351  0.69770252    -0.06800
C1369       C  0.67054494  0.36580622  0.81100176    -0.32100
N1370       N  0.66892103  0.37982772  0.86024029     0.14400
C1371       C  0.64467522  0.39494775  0.86116061    -0.32100
H1372       H  0.63748050  0.40830735  0.89504379     0.16300
C1373       C  0.59123904  0.32938973  0.73044207    -0.31100
N1374       N  0.56552769  0.33132627  0.75657770     0.13100
C1375       C  0.56414276  0.35694578  0.78201947    -0.31100
C1376       C  0.63262395  0.40983213  0.64831690    -0.31400
N1377       N  0.61833122  0.43481373  0.65083011     0.13600
H1378       H  0.64504015  0.40250892  0.61287216     0.16200
C1379       C  0.60481013  0.43603279  0.70127860    -0.31400
H1380       H  0.59082225  0.45288488  0.71450473     0.16200
H1381       H  0.54614824  0.36449786  0.80616723     0.16200
H1382       H  0.68731422  0.35131395  0.79967714     0.16300
H1383       H  0.59856820  0.31104722  0.70778957     0.16200
N1384       N  0.53716497  0.25792783  0.75573456    -0.36500
N1385       N  0.99466468  0.21280819  0.75236081    -0.57100
N1386       N  0.95056344  0.25489973  0.74126630    -0.36500
N1387       N  0.99283842  0.30007267  0.75508884    -0.57100
C1388       C  0.55252417  0.23529187  0.77111576     0.27100
C1389       C  0.55165366  0.28134400  0.76946654     0.27100
C1390       C  0.93522414  0.23130667  0.75136876     0.27100
C1391       C  0.93421687  0.27739285  0.75568424     0.27100
C1392       C  0.51888698  0.19786764  0.74458211     0.35700
C1393       C  0.97337254  0.19635061  0.73475666     0.35700
C1394       C  0.51559239  0.31674087  0.74535593     0.35700
C1395       C  0.96985823  0.31505078  0.74049725     0.35700
C1396       C  0.57688036  0.24446936  0.79540132    -0.21800
C1397       C  0.57635624  0.27343898  0.79426598    -0.21800
C1398       C  0.90900265  0.23899204  0.77303261    -0.21800
C1399       C  0.90839513  0.26791927  0.77583148    -0.21800
C1400       C  0.51293570  0.17200369  0.72154441    -0.22800
C1401       C  0.98428789  0.17112363  0.71499198    -0.22800
C1402       C  0.50701038  0.34222652  0.72411215    -0.22800
C1403       C  0.97819102  0.34114734  0.72091775    -0.22800
C1404       C  0.54620119  0.20665596  0.76005196    -0.18200
C1405       C  0.54388282  0.30955671  0.75730599    -0.18200
C1406       C  0.94136779  0.30620886  0.74792761    -0.18200
C1407       C  0.94411654  0.20313298  0.74010346    -0.18200
H1408       H  0.59348914  0.23164203  0.81186801     0.14700
H1409       H  0.59240237  0.28710022  0.80992656     0.14700
H1410       H  0.89210663  0.22527575  0.78644326     0.14700
H1411       H  0.89088784  0.28048640  0.79144283     0.14700
H1412       H  0.52772119  0.15554198  0.70992884     0.13000
H1413       H  0.97287822  0.15384365  0.69739382     0.13000
H1414       H  0.52010179  0.35970688  0.71149788     0.13000
H1415       H  0.96497839  0.35769354  0.70525966     0.13000
H1416       H  0.51940500  0.25734844  0.73166535     0.26300
H1417       H  0.97006732  0.25575031  0.72065239     0.26300
C1418       C  0.85327974  0.14326038  0.71710508     0.30100
C1419       C  0.88877332  0.11058170  0.77465376     0.30100
C1420       C  0.86239051  0.11560638  0.68831421    -0.06100
C1421       C  0.88218398  0.15710880  0.72940496    -0.06900
C1422       C  0.84224318  0.13372750  0.77428767    -0.06700
C1423       C  0.88067666  0.09905219  0.71733150    -0.06100
C1424       C  0.90027160  0.14027013  0.75922113    -0.06900
C1425       C  0.86001964  0.11685993  0.80387945    -0.06800
C1426       C  0.88645440  0.07547061  0.68485667    -0.32100
N1427       N  0.87134123  0.07684645  0.63822701     0.14400
C1428       C  0.85697904  0.10157422  0.63936087    -0.32100
H1429       H  0.84348966  0.10862158  0.60686020     0.16300
C1430       C  0.92528352  0.15515133  0.76373039    -0.31100
N1431       N  0.92308399  0.18063080  0.73896271     0.13100
C1432       C  0.89715190  0.18157893  0.71624394    -0.31100
C1433       C  0.84563825  0.11043997  0.85332254    -0.31400
N1434       N  0.81979321  0.12333037  0.85432402     0.13600
H1435       H  0.85347804  0.09738811  0.88612653     0.16200
C1436       C  0.81784067  0.13767362  0.80590743    -0.31400
H1437       H  0.79996457  0.15032701  0.79453626     0.16200
H1438       H  0.89022366  0.19873120  0.69078360     0.16200
H1439       H  0.90065726  0.05840345  0.69379968     0.16300
H1440       H  0.94422755  0.14808670  0.78283913     0.16200
N1441       N  0.74049227  0.38432584  0.08584294    -0.36500
N1442       N  0.69738226  0.38347165  0.00297910    -0.57100
N1443       N  0.74159407  0.38024040  0.91542569    -0.36500
N1444       N  0.78473534  0.38574908  0.99808508    -0.57100
C1445       C  0.71728127  0.39094783  0.11734699     0.23100
C1446       C  0.76328439  0.39162990  0.11495219     0.27100
C1447       C  0.71845282  0.38596378  0.88585824     0.27100
C1448       C  0.76444683  0.38691043  0.88318094     0.27100
C1449       C  0.68114092  0.37879567  0.04917551     0.35700
C1450       C  0.68177682  0.37646298  0.95895906     0.35700
C1451       C  0.80046080  0.38080791  0.04312752     0.35700
C1452       C  0.80106457  0.37918068  0.95268824     0.35700
C1453       C  0.72547397  0.40287341  0.16665109    -0.21800
C1454       C  0.75445570  0.40327129  0.16516639    -0.21800
C1455       C  0.72673620  0.39670330  0.83466531    -0.21800
C1456       C  0.75568816  0.39726479  0.83296845    -0.21800
C1457       C  0.65520012  0.36861049  0.03432447    -0.22800
C1458       C  0.65560413  0.36714313  0.97732726    -0.22800
C1459       C  0.82680060  0.37098511  0.02609669    -0.22800
C1460       C  0.82719565  0.37002916  0.96907137    -0.22800
C1461       C  0.68899609  0.38493079  0.10432588    -0.18200
C1462       C  0.79179635  0.38614452  0.09925669    -0.18200
C1463       C  0.79298301  0.38240208  0.89664945    -0.18200
C1464       C  0.69013632  0.38025831  0.90243524    -0.18200
H1465       H  0.71199775  0.41038268  0.20042935     0.14700
H1466       H  0.76754146  0.41109603  0.19761096     0.14700
H1467       H  0.71335382  0.40350616  0.80177987     0.14700
H1468       H  0.76876029  0.40455730  0.79859191     0.14700
H1469       H  0.63777324  0.36275298  0.06157708     0.13000
H1470       H  0.63852008  0.36003884  0.95233820     0.13000
H1471       H  0.84394771  0.36479011  0.05190418     0.13000
H1472       H  0.84465882  0.36298958  0.94283231     0.13000
H1473       H  0.74090674  0.37248441  0.04956274     0.26300
H1474       H  0.74181788  0.36949269  0.95291918     0.26300
N1475       N  0.74619703  0.12610510  0.08815345    -0.36500
N1476       N  0.79024380  0.12220065  0.00049779    -0.57100
N1477       N  0.74632490  0.12586018  0.91669567    -0.36500
N1478       N  0.70232022  0.12413601  0.00416248    -0.57100
C1479       C  0.76926205  0.11975039  0.11783854     0.27100
C1480       C  0.72299516  0.11995662  0.12006315     0.27100
C1481       C  0.76944253  0.11865732  0.88509238     0.27100
C1482       C  0.72312101  0.12050400  0.88667096     0.27100
C1483       C  0.80607178  0.12870326  0.04462813     0.35700
C1484       C  0.80624097  0.12777779  0.95434667     0.35700
C1485       C  0.68643013  0.12999422  0.05055267     0.35700
C1486       C  0.68646052  0.13074081  0.95995625     0.35700
C1487       C  0.76051388  0.10926254  0.16895108    -0.21800
C1488       C  0.73148326  0.10940561  0.17035015    -0.21800
C1489       C  0.76071545  0.10833580  0.83475830    -0.21800
C1490       C  0.73169405  0.10952501  0.83572460    -0.21800
C1491       C  0.83199229  0.13867674  0.02628338    -0.22800
C1492       C  0.83212331  0.13802402  0.96935529    -0.22800
C1493       C  0.66054856  0.14051077  0.03559186    -0.22800
C1494       C  0.66060733  0.14108704  0.97862315    -0.22800
C1495       C  0.79793405  0.12457915  0.10121356    -0.18200
C1496       C  0.69440614  0.12496379  0.10625963    -0.18200
C1497       C  0.69450525  0.12638810  0.90304324    -0.18200
C1498       C  0.79820426  0.12290263  0.89883586    -0.18200
H1499       H  0.77364607  0.10207543  0.20192561     0.14700
H1500       H  0.71817559  0.10239914  0.20461774     0.14700
H1501       H  0.77387220  0.10068578  0.80063432     0.14700
H1502       H  0.71845261  0.10283980  0.80258604     0.14700
H1503       H  0.84899032  0.14609139  0.05112477     0.13000
H1504       H  0.84922448  0.14486330  0.94224862     0.13000
H1505       H  0.64346893  0.14756948  0.06278132     0.13000
H1506       H  0.64358135  0.14873013  0.95398961     0.13000
H1507       H  0.74628660  0.13672114  0.05057100     0.26300
H1508       H  0.74650233  0.13658460  0.95422873     0.26300
C1509       C  0.88311088  0.39672352  0.77565534     0.30100
C1510       C  0.85048029  0.36408047  0.71365475     0.30100
C1511       C  0.85389562  0.39003444  0.80186154    -0.06100
C1512       C  0.87564071  0.40929576  0.71856232    -0.06900
C1513       C  0.89537836  0.36765027  0.76137675    -0.06700
C1514       C  0.83731924  0.37266086  0.77088051    -0.06100
C1515       C  0.85906087  0.39221968  0.68728504    -0.06900
C1516       C  0.87894601  0.35065617  0.72944118    -0.06800
C1517       C  0.81319769  0.36734978  0.80313923    -0.32100
N1518       N  0.81437319  0.38180555  0.85193868     0.14400
C1519       C  0.83910891  0.39600472  0.85092367    -0.32100
H1520       H  0.84584731  0.40966525  0.88375326     0.16300
C1521       C  0.85332500  0.40620279  0.63858792    -0.31100
N1522       N  0.86599577  0.43169591  0.63887308     0.13100
C1523       C  0.87913403  0.43397818  0.68810362    -0.31100
C1524       C  0.89389433  0.32561394  0.72210060    -0.31400
N1525       N  0.91894856  0.32733735  0.74811601     0.13600
H1526       H  0.88714422  0.30736516  0.69949412     0.16200
C1527       C  0.91963824  0.35298223  0.77297495    -0.31400
H1528       H  0.93665329  0.36055650  0.79764649     0.16200
H1529       H  0.88969674  0.45280326  0.70089201     0.16200
H1530       H  0.79611264  0.35371063  0.79219377     0.16300
H1531       H  0.84040713  0.39851197  0.60574793     0.16200
C1532       C  0.88803601  0.11307701  0.21601151     0.30100
C1533       C  0.85159820  0.14475925  0.27875668     0.30100
C1534       C  0.87919130  0.10025010  0.27325279    -0.06100
C1535       C  0.89883720  0.14224992  0.23307134    -0.06900
C1536       C  0.85950296  0.11973357  0.18957390    -0.06700
C1537       C  0.86025785  0.11644087  0.30475559    -0.06100
C1538       C  0.88053556  0.15844547  0.26554977    -0.06900
C1539       C  0.84123931  0.13605622  0.22166407    -0.06800
C1540       C  0.85488900  0.10219787  0.35403712    -0.32100
N1541       N  0.86977957  0.07782841  0.35336010     0.14400
C1542       C  0.88556351  0.07706811  0.30588255    -0.32100
H1543       H  0.90137577  0.06112245  0.29858466     0.16300
C1544       C  0.89507614  0.18273115  0.27872135    -0.31100
N1545       N  0.92095855  0.18216259  0.25306831     0.13100
C1546       C  0.92349458  0.15729399  0.22571044    -0.31100
C1547       C  0.81690812  0.13972410  0.19252249    -0.31400
N1548       N  0.81937548  0.12566807  0.14344660     0.13600
H1549       H  0.79863054  0.15173912  0.20627551     0.16200
C1550       C  0.84543709  0.11326924  0.14151089    -0.31400
H1551       H  0.85352566  0.10023831  0.10787781     0.16200
H1552       H  0.94207633  0.15068688  0.20221919     0.16200
H1553       H  0.84146285  0.10902483  0.38840580     0.16300
H1554       H  0.88776379  0.19955059  0.30565341     0.16200
C1555       C  0.63695259  0.14852891  0.72803259     0.30100
C1556       C  0.60282082  0.11533512  0.79128621     0.30100
C1557       C  0.64977735  0.13800616  0.78288631    -0.06100
C1558       C  0.60872034  0.16184926  0.74727279    -0.06900
C1559       C  0.62784184  0.12060020  0.70005423    -0.06700
C1560       C  0.63220862  0.12141625  0.81574980    -0.06100
C1561       C  0.59139679  0.14523455  0.78015299    -0.06900
C1562       C  0.61011079  0.10408206  0.73257387    -0.06800
C1563       C  0.64679311  0.11573890  0.86391928    -0.32100
N1564       N  0.67291797  0.12744621  0.86065758     0.14400
C1565       C  0.67488249  0.14087520  0.81087903    -0.32100
H1566       H  0.69331630  0.15215338  0.79634469     0.16300
C1567       C  0.56694912  0.16073059  0.79093328    -0.31100
N1568       N  0.56857926  0.18570714  0.76366519     0.13100
C1569       C  0.59422864  0.18658561  0.73714569    -0.31100
C1570       C  0.60353473  0.08048948  0.70180843    -0.31400
N1571       N  0.61718054  0.08154701  0.65140813     0.13600
H1572       H  0.58994652  0.06357172  0.71550967     0.16200
C1573       C  0.63235275  0.10586661  0.65035767    -0.31400
H1574       H  0.64618676  0.11198385  0.61623820     0.16200
H1575       H  0.60145471  0.20355907  0.71074301     0.16200
H1576       H  0.63887581  0.10436076  0.89966953     0.16300
H1577       H  0.54888754  0.15420929  0.81578869     0.16200
C1578       C  0.63193219  0.36694129  0.28531758     0.30100
C1579       C  0.59794469  0.39947641  0.22462532     0.30100
C1580       C  0.64426956  0.37604675  0.22848331    -0.06100
C1581       C  0.60336576  0.35345322  0.27085797    -0.06900
C1582       C  0.62253864  0.39491611  0.31300888    -0.06700
C1583       C  0.62721314  0.39308719  0.19733746    -0.06100
C1584       C  0.58653300  0.37016904  0.23863612    -0.06900
C1585       C  0.60558396  0.41180052  0.28178093    -0.06800
C1586       C  0.64253982  0.39919069  0.14885346    -0.32100
N1587       N  0.66758672  0.38520041  0.14880781     0.14400
C1588       C  0.66884613  0.37116186  0.19772770    -0.32100
H1589       H  0.68626296  0.35806890  0.20984936     0.16300
C1590       C  0.56248115  0.35528177  0.22738866    -0.31100
N1591       N  0.56346566  0.33009207  0.25363187     0.13100
C1592       C  0.58789045  0.32920328  0.28163939    -0.31100
C1593       C  0.60046492  0.43614751  0.31261167    -0.31400
N1594       N  0.61340668  0.43423692  0.36214620     0.13600
H1595       H  0.58837120  0.45416293  0.29980165     0.16200
C1596       C  0.62690992  0.40897275  0.36254504    -0.31400
H1597       H  0.63937536  0.40154236  0.39630232     0.16200
H1598       H  0.59316108  0.31224657  0.30905481     0.16200
H1599       H  0.63635953  0.41301671  0.11592003     0.16300
H1600       H  0.54548885  0.36232523  0.20194090     0.16200
O1601       O  0.51290681  0.03366465  0.09067251    -0.80000
O1602       O  0.97158834  0.01211524  0.86877386    -0.80100
O1603       O  0.52226203  0.04638942  0.96145674    -0.80100
O1604       O  0.94724049  0.04453677  0.04047606    -0.80000
O1605       O  0.52517848  0.01644606  0.89116130    -0.80100
O1606       O  0.98608949  0.03664959  0.08755069    -0.80000
O1607       O  0.96064857  0.04373267  0.93270313    -0.80000
O1608       O  0.55484856  0.03088976  0.04680829    -0.80100
C1609       C  0.53905869  0.04165041  0.08415585     1.09700
C1610       C  0.96275241  0.03651243  0.88285104     1.09500
C1611       C  0.52914591  0.04070011  0.91173560     1.09700
C1612       C  0.96378958  0.05093060  0.07786649     1.09600
O1613       O  0.95616673  0.49633991  0.10127991    -0.80000
O1614       O  0.52259519  0.46215110  0.95140717    -0.80100
O1615       O  0.53211174  0.47948992  0.06050116    -0.80000
O1616       O  0.93527658  0.48929722  0.92444864    -0.80000
O1617       O  0.96926683  0.45863936  0.93104544    -0.80100
O1618       O  0.50466631  0.48509883  0.13514781    -0.80000
O1619       O  0.93009703  0.48650088  0.03224058    -0.80000
O1620       O  0.55296107  0.49469131  0.96245650    -0.80100
Co1621     Co  0.99314673  0.99637881  0.06476263     1.51500
Co1622     Co  0.99685805  0.98715559  0.91387194     1.51700
Co1623     Co  0.52443429  0.01458587  0.01188475     1.51600
Co1624     Co  0.94570666  0.01607483  0.98307440     1.51500
O1625       O  0.98644386  0.00388945  0.98677766    -1.42000
C1626       C  0.93712654  0.48206700  0.08110883     1.09600
C1627       C  0.54754932  0.46993288  0.94796927     1.09700
C1628       C  0.52500449  0.47287936  0.11051932     1.09600
C1629       C  0.94489926  0.46478422  0.91800367     1.09600
O1630       O  0.76889867  0.20349254  0.45960932    -0.80000
O1631       O  0.75744556  0.31591269  0.54765218    -0.80100
O1632       O  0.75506234  0.27953309  0.38124325    -0.80100
O1633       O  0.78610037  0.22738481  0.56728337    -0.80000
O1634       O  0.77138262  0.29960045  0.45264525    -0.80100
O1635       O  0.75481174  0.19465640  0.56202743    -0.80000
O1636       O  0.78811336  0.28288695  0.56223406    -0.80000
O1637       O  0.75438362  0.22496456  0.38703197    -0.80100
C1638       C  0.77065333  0.20787802  0.40884846     1.09700
C1639       C  0.78132506  0.30833176  0.56375152     1.09500
C1640       C  0.77321258  0.29477963  0.40233459     1.09700
C1641       C  0.77818075  0.20313547  0.57929818     1.09600
O1642       O  0.70309311  0.22677196  0.54940786    -0.80000
O1643       O  0.72024045  0.32426367  0.46447888    -0.80100
O1644       O  0.70109340  0.22491680  0.44851334    -0.80000
O1645       O  0.73214073  0.28620257  0.61334623    -0.80000
O1646       O  0.70383598  0.28647200  0.54424573    -0.80100
O1647       O  0.71655844  0.18380801  0.47741241    -0.80000
O1648       O  0.73018534  0.23046584  0.61973623    -0.80000
O1649       O  0.70120304  0.28391725  0.44110376    -0.80100
Co1650     Co  0.73572162  0.21618333  0.50193356     1.51500
Co1651     Co  0.73703744  0.29190753  0.49450648     1.51700
Co1652     Co  0.72966448  0.25340670  0.42257058     1.51600
Co1653     Co  0.75909388  0.25655420  0.58576695     1.51500
O1654       O  0.74997137  0.25415090  0.50382265    -1.42000
C1655       C  0.70672768  0.22390166  0.60006664     1.09600
C1656       C  0.70355728  0.31056591  0.43475041     1.09700
C1657       C  0.70224445  0.19811371  0.44366838     1.09600
C1658       C  0.70860954  0.29255556  0.59356129     1.09600
C1659       C  0.56000712  0.43467714  0.10786266    -0.13200
C1660       C  0.54050586  0.45111194  0.13815284     0.08900
C1661       C  0.53667906  0.44713142  0.19513046    -0.13200
C1662       C  0.55451361  0.42919489  0.22236507    -0.13200
C1663       C  0.57712893  0.41627775  0.19335610     0.08900
C1664       C  0.57776038  0.41674242  0.13537495    -0.13200
H1665       H  0.56186249  0.43600536  0.06314163     0.12900
H1666       H  0.52062491  0.45849707  0.21883498     0.12900
H1667       H  0.55106223  0.42608614  0.26636956     0.12900
H1668       H  0.59159198  0.40327634  0.11107899     0.12900
C1669       C  0.65078254  0.32183591  0.32586555    -0.13200
C1670       C  0.65269874  0.35083958  0.31822343     0.08900
C1671       C  0.67498040  0.36545342  0.34185120    -0.13200
C1672       C  0.69128093  0.35257425  0.38103274    -0.13200
C1673       C  0.68645704  0.32447986  0.39444318     0.08900
C1674       C  0.66707988  0.30880668  0.36478367    -0.13200
H1675       H  0.63754678  0.30894501  0.30119838     0.12900
H1676       H  0.67883369  0.38729222  0.33205802     0.12900
H1677       H  0.70748551  0.36454982  0.40079510     0.12900
H1678       H  0.66459049  0.28645656  0.37130135     0.12900
C1679       C  0.67027880  0.18963175  0.72139112    -0.13200
C1680       C  0.65434166  0.16912233  0.69450288     0.08900
C1681       C  0.65108557  0.17149607  0.63717131    -0.13200
C1682       C  0.66698336  0.19070535  0.60665990    -0.13200
C1683       C  0.68590454  0.20838547  0.63320949     0.08900
C1684       C  0.68674537  0.20843965  0.69093474    -0.13200
H1685       H  0.67015975  0.19121447  0.76599181     0.12900
H1686       H  0.63614832  0.15880600  0.61569198     0.12900
H1687       H  0.66523273  0.19091082  0.56205734     0.12900
H1688       H  0.70034878  0.22273260  0.71235437     0.12900
C1689       C  0.55415976  0.09619136  0.81318382    -0.13200
C1690       C  0.58323148  0.09599462  0.82306888     0.08900
C1691       C  0.59398173  0.07480893  0.85687646    -0.13200
C1692       C  0.57595070  0.05754193  0.88709636    -0.13200
C1693       C  0.54696542  0.05998356  0.88128918     0.08900
C1694       C  0.53600601  0.07862306  0.84302479    -0.13200
H1695       H  0.54545302  0.10948130  0.78174105     0.12900
H1696       H  0.61621093  0.07064125  0.85862907     0.12900
H1697       H  0.58463721  0.04171825  0.91395784     0.12900
H1698       H  0.51368549  0.07922819  0.83566874     0.12900
C1699       C  0.91608170  0.06931111  0.18994862    -0.13200
C1700       C  0.90885667  0.09717943  0.17911378     0.08900
C1701       C  0.92213101  0.11061841  0.13356896    -0.13200
C1702       C  0.94358233  0.09702784  0.10307155    -0.13200
C1703       C  0.95242981  0.07020400  0.11881943     0.08900
C1704       C  0.93906821  0.05688129  0.16361269    -0.13200
H1705       H  0.90271811  0.05593129  0.21443151     0.12900
H1706       H  0.91562902  0.13145266  0.12129028     0.12900
H1707       H  0.95215961  0.10666643  0.06573844     0.12900
H1708       H  0.94358694  0.03510402  0.17290838     0.12900
C1709       C  0.80989304  0.20646735  0.34023673    -0.13200
C1710       C  0.79056919  0.19231611  0.37449728     0.08900
C1711       C  0.78898433  0.16311682  0.37307720    -0.13200
C1712       C  0.80788887  0.14799022  0.33984007    -0.13200
C1713       C  0.82996702  0.16173336  0.31120303     0.08900
C1714       C  0.82931579  0.19120793  0.30812116    -0.13200
H1715       H  0.81003044  0.22919939  0.33869209     0.12900
H1716       H  0.77276417  0.15214531  0.39671049     0.12900
H1717       H  0.80519372  0.12553753  0.33676509     0.12900
H1718       H  0.84318643  0.20254967  0.28015087     0.12900
C1719       C  0.78757135  0.34622418  0.63003814    -0.13200
C1720       C  0.79943996  0.32718677  0.59211674     0.08900
C1721       C  0.82823019  0.32137220  0.59157928    -0.13200
C1722       C  0.84468298  0.33271116  0.63199039    -0.13200
C1723       C  0.83224974  0.34871903  0.67505768     0.08900
C1724       C  0.80394858  0.35702880  0.67129810    -0.13200
H1725       H  0.76542116  0.35144923  0.62975141     0.12900
H1726       H  0.83772639  0.30726823  0.56105156     0.12900
H1727       H  0.86709219  0.32937364  0.62839912     0.12900
H1728       H  0.79453693  0.37227470  0.69948691     0.12900
C1729       C  0.90324623  0.40533287  0.86832610    -0.13200
C1730       C  0.90188950  0.41267089  0.81205526     0.08900
C1731       C  0.91962336  0.43352299  0.79058882    -0.13200
C1732       C  0.93331923  0.45091666  0.82620974    -0.13200
C1733       C  0.93101923  0.44598016  0.88288979     0.08900
C1734       C  0.91757499  0.42235788  0.90416572    -0.13200
H1735       H  0.89244373  0.38708284  0.88474227     0.12900
H1736       H  0.92359539  0.43614212  0.74687620     0.12900
H1737       H  0.94593805  0.46800511  0.80967698     0.12900
H1738       H  0.91762246  0.41759873  0.94797602     0.12900
C1739       C  0.92962793  0.10152464  0.83695249    -0.13200
C1740       C  0.90768541  0.09115273  0.80570249     0.08900
C1741       C  0.90423873  0.06193532  0.80172677    -0.13200
C1742       C  0.92510846  0.04384801  0.81919528    -0.13200
C1743       C  0.94846170  0.05469900  0.84538565     0.08900
C1744       C  0.95050258  0.08363924  0.85461099    -0.13200
H1745       H  0.92997187  0.12307636  0.85047837     0.12900
H1746       H  0.88549279  0.05304097  0.78464407     0.12900
H1747       H  0.92180307  0.02139279  0.81672390     0.12900
H1748       H  0.96685996  0.09203578  0.88009637     0.12900
C1749       C  0.83190056  0.18851676  0.68448949    -0.13200
C1750       C  0.83140530  0.15930537  0.68670104     0.08900
C1751       C  0.80890989  0.14494660  0.66264804    -0.13200
C1752       C  0.79102391  0.15892912  0.62734953    -0.13200
C1753       C  0.79472062  0.18759749  0.61852557     0.08900
C1754       C  0.81415053  0.20252689  0.64975084    -0.13200
H1755       H  0.84549249  0.20071805  0.70990331     0.12900
H1756       H  0.80587047  0.12270747  0.66939280     0.12900
H1757       H  0.77496193  0.14738127  0.60624212     0.12900
H1758       H  0.81576507  0.22516882  0.64729337     0.12900
C1759       C  0.57349451  0.40639368  0.87528427    -0.13200
C1760       C  0.58798529  0.41846223  0.82990577     0.08900
C1761       C  0.59530168  0.44708487  0.83301838    -0.13200
C1762       C  0.58456061  0.46395763  0.87576713    -0.13200
C1763       C  0.56721989  0.45216694  0.91700210     0.08900
C1764       C  0.56286156  0.42314170  0.91802959    -0.13200
H1765       H  0.57068181  0.38397334  0.87843864     0.12900
H1766       H  0.60956366  0.45651191  0.80292857     0.12900
H1767       H  0.58838070  0.48635303  0.87471904     0.12900
H1768       H  0.54996695  0.41365225  0.95055524     0.12900
C1769       C  0.70085499  0.33082455  0.66042151    -0.13200
C1770       C  0.68945923  0.31116736  0.62448347     0.08900
C1771       C  0.66068152  0.31209503  0.61389885    -0.13200
C1772       C  0.64317165  0.33085947  0.64320975    -0.13200
C1773       C  0.65425663  0.34847256  0.68387962     0.08900
C1774       C  0.68357043  0.35017243  0.68759804    -0.13200
H1775       H  0.72327880  0.33178585  0.66634219     0.12900
H1776       H  0.65179321  0.29823563  0.58350834     0.12900
H1777       H  0.62110277  0.33153939  0.63397119     0.12900
H1778       H  0.69332428  0.36632467  0.71176060     0.12900
C1779       C  0.81451810  0.32303573  0.28069616    -0.13200
C1780       C  0.83081665  0.34338963  0.30708558     0.08900
C1781       C  0.83294287  0.34222431  0.36473001    -0.13200
C1782       C  0.81492113  0.32529479  0.39572023    -0.13200
C1783       C  0.79528975  0.30840678  0.36926038     0.08900
C1784       C  0.79616441  0.30620929  0.31154302    -0.13200
H1785       H  0.81553457  0.32037145  0.23626597     0.12900
H1786       H  0.84829539  0.35446388  0.38611662     0.12900
H1787       H  0.81583128  0.32607936  0.44045491     0.12900
H1788       H  0.78226316  0.29212711  0.29034298     0.12900
C1789       C  0.89952637  0.41547555  0.11763217    -0.13200
C1790       C  0.90143089  0.41548897  0.17552068     0.08900
C1791       C  0.92040752  0.43386378  0.19976452    -0.13200
C1792       C  0.93157040  0.45601096  0.16924076    -0.13200
C1793       C  0.92513338  0.45898167  0.11324238     0.08900
C1794       C  0.91031229  0.43774071  0.08687524    -0.13200
H1795       H  0.88886947  0.39885502  0.09629192     0.12900
H1796       H  0.92589082  0.43173174  0.24264459     0.12900
H1797       H  0.94494446  0.47091790  0.18961496     0.12900
H1798       H  0.90718598  0.43826069  0.04267971     0.12900
C1799       C  0.67654513  0.14514925  0.34369088    -0.13200
C1800       C  0.65507632  0.16059703  0.31867818     0.08900
C1801       C  0.65325394  0.18949213  0.32768876    -0.13200
C1802       C  0.66843618  0.20157579  0.36922333    -0.13200
C1803       C  0.68662864  0.18504152  0.40029532     0.08900
C1804       C  0.69169007  0.15707952  0.38569384    -0.13200
H1805       H  0.68031249  0.12331575  0.33315666     0.12900
H1806       H  0.64073676  0.20295337  0.30251380     0.12900
H1807       H  0.66584666  0.22386094  0.37693505     0.12900
H1808       H  0.70711127  0.14452030  0.40673210     0.12900
C1809       C  0.55911936  0.08213232  0.20825854    -0.13200
C1810       C  0.58121593  0.09812046  0.18504694     0.08900
C1811       C  0.58318067  0.10114154  0.12729746    -0.13200
C1812       C  0.56842323  0.08325818  0.09377159    -0.13200
C1813       C  0.54989906  0.06387937  0.11784769     0.08900
C1814       C  0.54367088  0.06466480  0.17466144    -0.13200
H1815       H  0.55413694  0.08259595  0.25213594     0.12900
H1816       H  0.59676282  0.11657888  0.10790139     0.12900
H1817       H  0.57199126  0.08400294  0.04928436     0.12900
H1818       H  0.52818217  0.05070358  0.19322684     0.12900
C1819       C  0.60090962  0.61390774  0.22092544     0.30100
C1820       C  0.63458104  0.64538467  0.28398835     0.30100
C1821       C  0.63109242  0.61887433  0.19644148    -0.06100
C1822       C  0.59002742  0.64375190  0.23394389    -0.06900
C1823       C  0.60671201  0.60159980  0.27919880    -0.06700
C1824       C  0.64791103  0.63544754  0.22846286    -0.06100
C1825       C  0.60673961  0.65994784  0.26729661    -0.06900
C1826       C  0.62367758  0.61806473  0.31126243    -0.06800
C1827       C  0.67321010  0.63927994  0.19934543    -0.32100
N1828       N  0.67262279  0.62496836  0.15044818     0.14400
C1829       C  0.64719315  0.61189050  0.14916440    -0.32100
H1830       H  0.64090339  0.59842702  0.11568946     0.16300
C1831       C  0.59105438  0.68411173  0.27982406    -0.31100
N1832       N  0.56650295  0.68364483  0.25220748     0.13100
C1833       C  0.56567495  0.65880888  0.22438373    -0.31100
C1834       C  0.62694404  0.60443057  0.36138667    -0.31400
N1835       N  0.61282220  0.57973799  0.36104992     0.13600
H1836       H  0.63924867  0.61165332  0.39548869     0.16200
C1837       C  0.60055406  0.57773330  0.31070226    -0.31400
H1838       H  0.58859420  0.55978598  0.29765389     0.16200
H1839       H  0.54830016  0.65186288  0.19997846     0.16200
H1840       H  0.69053568  0.65209422  0.21237631     0.16300
H1841       H  0.59606136  0.70043435  0.30891705     0.16200
N1842       N  0.99326602  0.71287127  0.25057770    -0.36500
N1843       N  0.53573780  0.75658409  0.25462933    -0.57100
N1844       N  0.99127985  0.79951303  0.24434792    -0.36500
N1845       N  0.94857683  0.75576517  0.25059711    -0.57100
C1846       C  0.51632024  0.69762491  0.26375154     0.27100
C1847       C  0.97027943  0.69727597  0.26404653     0.27100
C1848       C  0.51350257  0.81532354  0.25924272     0.27100
C1849       C  0.96756701  0.81487067  0.25494729     0.27100
C1850       C  0.55254834  0.73392000  0.24415642     0.35700
C1851       C  0.55141153  0.77970126  0.24320639     0.35700
C1852       C  0.93344002  0.73231095  0.24063375     0.35700
C1853       C  0.93248337  0.77799122  0.23574275     0.35700
C1854       C  0.50786133  0.67219507  0.28617857    -0.21800
C1855       C  0.97888309  0.67200055  0.28649860    -0.21800
C1856       C  0.50372268  0.84084419  0.27990748    -0.21800
C1857       C  0.97483827  0.84057435  0.27711315    -0.21800
C1858       C  0.57888321  0.74273884  0.22576731    -0.22800
C1859       C  0.57816627  0.77162166  0.22515149    -0.22800
C1860       C  0.90778834  0.73970874  0.21905518    -0.22800
C1861       C  0.90720293  0.76853703  0.21589401    -0.22800
C1862       C  0.54478554  0.70542838  0.25328199    -0.18200
C1863       C  0.94188880  0.70437693  0.25302749    -0.18200
C1864       C  0.93964655  0.80671163  0.24311683    -0.18200
C1865       C  0.54241703  0.80798774  0.25182745    -0.18200
H1866       H  0.52115658  0.65547919  0.30094253     0.14700
H1867       H  0.96568359  0.65504743  0.30143938     0.14700
H1868       H  0.51604942  0.85792334  0.29578791     0.14700
H1869       H  0.96081782  0.85735383  0.29056064     0.14700
H1870       H  0.59675129  0.72979539  0.21350319     0.13000
H1871       H  0.59538748  0.78506497  0.21226158     0.13000
H1872       H  0.89125514  0.72583591  0.20626400     0.13000
H1873       H  0.89011689  0.78102428  0.20033535     0.13000
H1874       H  0.99330994  0.73142332  0.22797418     0.26300
H1875       H  0.99242435  0.78054346  0.22294436     0.26300
C1876       C  0.84833044  0.86376805  0.27365602     0.30100
C1877       C  0.88220395  0.89746545  0.21099327     0.30100
C1878       C  0.83599075  0.87347560  0.21815254    -0.06100
C1879       C  0.85595588  0.89221091  0.30110931    -0.06900
C1880       C  0.87710890  0.85132806  0.25644838    -0.06700
C1881       C  0.85316221  0.89091685  0.18643093    -0.06100
C1882       C  0.87338247  0.90936453  0.26899592    -0.06900
C1883       C  0.89437117  0.86827803  0.22422511    -0.06800
C1884       C  0.83787251  0.89880638  0.14069225    -0.32100
N1885       N  0.81266330  0.88556672  0.14222778     0.14400
C1886       C  0.81099619  0.87068986  0.19021548    -0.32100
H1887       H  0.79271548  0.85886506  0.20365040     0.16300
C1888       C  0.87707239  0.93394608  0.29906747    -0.31100
N1889       N  0.86295936  0.93220380  0.34871492     0.13100
C1890       C  0.84941726  0.90704561  0.34969994    -0.31100
C1891       C  0.91930427  0.85352533  0.21478716    -0.31400
N1892       N  0.91764838  0.82816971  0.24106064     0.13600
H1893       H  0.93747025  0.86090548  0.19119070     0.16200
C1894       C  0.89184079  0.82689344  0.26688488    -0.31400
H1895       H  0.88447235  0.80965644  0.29245491     0.16200
H1896       H  0.83544711  0.90037498  0.38317357     0.16200
H1897       H  0.84417511  0.91341053  0.10856137     0.16300
H1898       H  0.88888851  0.95217293  0.28593374     0.16200
N1899       N  0.61159673  0.50719451  0.42120860    -0.36500
N1900       N  0.61528839  0.55141926  0.50653857    -0.57100
N1901       N  0.61485078  0.50811232  0.59248900    -0.36500
N1902       N  0.61629611  0.96394349  0.50645601    -0.57100
C1903       C  0.61825703  0.53012416  0.39026660     0.27100
C1904       C  0.61866641  0.98412897  0.39047620     0.27100
C1905       C  0.62118268  0.53127620  0.62280299     0.27100
C1906       C  0.62164915  0.98504924  0.62263154     0.27100
C1907       C  0.60895962  0.56719888  0.46163702     0.35700
C1908       C  0.61111390  0.56793802  0.55216567     0.35700
C1909       C  0.60977650  0.94777811  0.46221246     0.35700
C1910       C  0.61156456  0.94808432  0.55243889     0.35700
C1911       C  0.63006958  0.52146126  0.33989911    -0.21800
C1912       C  0.63029481  0.99255154  0.34001983    -0.21800
C1913       C  0.63214514  0.52271956  0.67257727    -0.21800
C1914       C  0.63245507  0.99376736  0.67246379    -0.21800
C1915       C  0.60042404  0.59372523  0.47911238    -0.22800
C1916       C  0.60194503  0.59423562  0.53605481    -0.22800
C1917       C  0.60057758  0.92175790  0.48035921    -0.22800
C1918       C  0.60176740  0.92192909  0.53724316    -0.22800
C1919       C  0.61276734  0.55863125  0.40503464    -0.18200
C1920       C  0.61364764  0.95569835  0.40563039    -0.18200
C1921       C  0.61718468  0.95633739  0.60776458    -0.18200
C1922       C  0.61642791  0.55994424  0.60796954    -0.18200
H1923       H  0.63800970  0.53456576  0.30650747     0.14700
H1924       H  0.63837925  0.97927842  0.30676554     0.14700
H1925       H  0.63952219  0.53591678  0.70556391     0.14700
H1926       H  0.64007087  0.98067981  0.70540275     0.14700
H1927       H  0.59374788  0.61102697  0.45364513     0.13000
H1928       H  0.59662941  0.61194466  0.56250987     0.13000
H1929       H  0.59354334  0.90443144  0.45539800     0.13000
H1930       H  0.59578272  0.90476414  0.56427018     0.13000
H1931       H  0.60020806  0.50729595  0.45867722     0.26300
H1932       H  0.60404404  0.50798159  0.55570887     0.26300
N1933       N  0.86761035  0.50450967  0.40954277    -0.36500
N1934       N  0.86877012  0.54775881  0.49540741    -0.57100
N1935       N  0.86896396  0.50407986  0.57956292    -0.36500
N1936       N  0.86309629  0.96070955  0.49424047    -0.57100
C1937       C  0.86233782  0.52811875  0.38001776     0.27100
C1938       C  0.85948381  0.98214736  0.37896615     0.27100
C1939       C  0.86351578  0.52740298  0.61058735     0.27100
C1940       C  0.86100479  0.98150129  0.61027663     0.27100
C1941       C  0.87501136  0.56360916  0.45038697     0.35700
C1942       C  0.87564755  0.56329443  0.53989030     0.35700
C1943       C  0.86813312  0.94474499  0.44827301     0.35700
C1944       C  0.86932944  0.94460116  0.53865250     0.35700
C1945       C  0.85064920  0.52065823  0.33027712    -0.21800
C1946       C  0.84877545  0.99175169  0.32967691    -0.21800
C1947       C  0.85168750  0.51956732  0.66124535    -0.21800
C1948       C  0.84998645  0.99066987  0.66097010    -0.21800
C1949       C  0.88598181  0.58914592  0.46625773    -0.22800
C1950       C  0.88641755  0.58893425  0.52306764    -0.22800
C1951       C  0.87776897  0.91848898  0.46363021    -0.22800
C1952       C  0.87860990  0.91842299  0.52060861    -0.22800
C1953       C  0.86915948  0.55611037  0.39539993    -0.18200
C1954       C  0.86322058  0.95329567  0.39282265    -0.18200
C1955       C  0.86539610  0.95286941  0.59520388    -0.18200
C1956       C  0.87040248  0.55542889  0.59552098    -0.18200
H1957       H  0.84413558  0.53459326  0.29769060     0.14700
H1958       H  0.84048907  0.97925519  0.29652071     0.14700
H1959       H  0.84499732  0.53323706  0.69500444     0.14700
H1960       H  0.84165046  0.97789341  0.69451517     0.14700
H1961       H  0.89288762  0.60618844  0.43973132     0.13000
H1962       H  0.89373161  0.60578715  0.54895384     0.13000
H1963       H  0.88400685  0.90124595  0.43670302     0.13000
H1964       H  0.88561481  0.90109100  0.54563321     0.13000
H1965       H  0.87893267  0.50353842  0.44565965     0.26300
H1966       H  0.88043757  0.50338571  0.54225487     0.26300
C1967       C  0.60292653  0.89963234  0.78853970     0.30100
C1968       C  0.63547952  0.86613460  0.72176263     0.30100
C1969       C  0.63109418  0.89057753  0.81203811    -0.06100
C1970       C  0.58927280  0.87127151  0.77222348    -0.06900
C1971       C  0.61119762  0.91221900  0.73151286    -0.06700
C1972       C  0.64756072  0.87299700  0.77930854    -0.06100
C1973       C  0.60615452  0.85401797  0.73846238    -0.06900
C1974       C  0.62817781  0.89532295  0.69770763    -0.06800
C1975       C  0.67054423  0.86580323  0.81100693    -0.32100
N1976       N  0.66892067  0.87982464  0.86024556     0.14400
C1977       C  0.64467516  0.89494524  0.86116604    -0.32100
H1978       H  0.63748094  0.90830521  0.89504904     0.16300
C1979       C  0.59123806  0.82938999  0.73044278    -0.31100
N1980       N  0.56552641  0.83132673  0.75657705     0.13100
C1981       C  0.56414170  0.85694606  0.78201987    -0.31100
C1982       C  0.63262555  0.90983147  0.64832197    -0.31400
N1983       N  0.61833325  0.93481330  0.65083502     0.13600
H1984       H  0.64504146  0.90250791  0.61287710     0.16200
C1985       C  0.60481220  0.93603262  0.70128357    -0.31400
H1986       H  0.59082452  0.95288487  0.71450963     0.16200
H1987       H  0.54614714  0.86449814  0.80616752     0.16200
H1988       H  0.68731331  0.85131083  0.79968186     0.16300
H1989       H  0.59856728  0.81104749  0.70779035     0.16200
N1990       N  0.53716487  0.75792765  0.75573221    -0.36500
N1991       N  0.99466531  0.71280731  0.75236118    -0.57100
N1992       N  0.95056337  0.75489825  0.74126498    -0.36500
N1993       N  0.99283752  0.80007180  0.75508476    -0.57100
C1994       C  0.55252425  0.73529202  0.77111491     0.27100
C1995       C  0.55165284  0.78134421  0.76946510     0.27100
C1996       C  0.93522460  0.73130508  0.75136920     0.27100
C1997       C  0.93421641  0.77739128  0.75568180     0.27100
C1998       C  0.51888776  0.69786698  0.74458272     0.35700
C1999       C  0.97337330  0.69634924  0.73475816     0.35700
C2000       C  0.51559127  0.81674056  0.74535302     0.35700
C2001       C  0.96985714  0.81504951  0.74049276     0.35700
C2002       C  0.57687977  0.74447010  0.79540201    -0.21800
C2003       C  0.57635506  0.77343972  0.79426643    -0.21800
C2004       C  0.90900308  0.73899026  0.77303337    -0.21800
C2005       C  0.90839497  0.76791752  0.77583026    -0.21800
C2006       C  0.51293671  0.67200264  0.72154634    -0.22800
C2007       C  0.98428887  0.67112216  0.71499452    -0.22800
C2008       C  0.50700890  0.84222612  0.72410937    -0.22800
C2009       C  0.97818958  0.84114628  0.72091375    -0.22800
C2010       C  0.54620185  0.70665583  0.76005204    -0.18200
C2011       C  0.54388168  0.80955690  0.75730435    -0.18200
C2012       C  0.94136683  0.80620732  0.74792395    -0.18200
C2013       C  0.94411726  0.70313143  0.74010461    -0.18200
H2014       H  0.59348845  0.73164317  0.81187023     0.14700
H2015       H  0.59240050  0.78710134  0.80992832     0.14700
H2016       H  0.89210744  0.72527381  0.78644533     0.14700
H2017       H  0.89088754  0.78048458  0.79144115     0.14700
H2018       H  0.52772228  0.65554095  0.70993116     0.13000
H2019       H  0.97287938  0.65384185  0.69739716     0.13000
H2020       H  0.52010003  0.85970693  0.71149652     0.13000
H2021       H  0.96497672  0.85769239  0.70525601     0.13000
H2022       H  0.51940530  0.75734781  0.73166209     0.26300
H2023       H  0.97006725  0.75574881  0.72065056     0.26300
C2024       C  0.85327961  0.64326083  0.71710540     0.30100
C2025       C  0.88877275  0.61058073  0.77465289     0.30100
C2026       C  0.86238956  0.61560669  0.68831389    -0.06100
C2027       C  0.88218426  0.65710831  0.72940517    -0.06900
C2028       C  0.84224314  0.63372788  0.77428799    -0.06700
C2029       C  0.88067550  0.59905191  0.71733052    -0.06100
C2030       C  0.90027158  0.64026903  0.75922082    -0.06900
C2031       C  0.86001927  0.61685954  0.80387912    -0.06800
C2032       C  0.88645279  0.57547054  0.68485499    -0.32100
N2033       N  0.87133945  0.57684685  0.63822563     0.14400
C2034       C  0.85697756  0.60157483  0.63936039    -0.32100
H2035       H  0.84348802  0.60862257  0.60686029     0.16300
C2036       C  0.92528382  0.65514971  0.76373026    -0.31100
N2037       N  0.92308473  0.68062932  0.73896302     0.13100
C2038       C  0.89715276  0.68157801  0.71624408    -0.31100
C2039       C  0.84563784  0.61043975  0.85332224    -0.31400
N2040       N  0.81979320  0.62333100  0.85432432     0.13600
H2041       H  0.85347733  0.59738746  0.88612588     0.16200
C2042       C  0.81784090  0.63767461  0.80590817    -0.31400
H2043       H  0.79996513  0.65032861  0.79453755     0.16200
H2044       H  0.89022508  0.69873043  0.69078360     0.16200
H2045       H  0.90065555  0.55840319  0.69379720     0.16300
H2046       H  0.94422775  0.64808471  0.78283882     0.16200
N2047       N  0.74049276  0.88432852  0.08584550    -0.36500
N2048       N  0.69738273  0.88347120  0.00298272    -0.57100
N2049       N  0.74159437  0.88023839  0.91542890    -0.36500
N2050       N  0.78473570  0.88575001  0.99808748    -0.57100
C2051       C  0.71728181  0.89095029  0.11734987     0.23100
C2052       C  0.76328488  0.89163252  0.11495465     0.27100
C2053       C  0.71845284  0.88596090  0.88586162     0.27100
C2054       C  0.76444686  0.88690884  0.88318373     0.27100
C2055       C  0.68114160  0.87879603  0.04917970     0.35700
C2056       C  0.68177735  0.87646089  0.95896370     0.35700
C2057       C  0.80046117  0.88080954  0.04313018     0.35700
C2058       C  0.80106494  0.87918100  0.95269099     0.35700
C2059       C  0.72547456  0.90287574  0.16665405    -0.21800
C2060       C  0.75445628  0.90327367  0.16516913    -0.21800
C2061       C  0.72673578  0.89670015  0.83466822    -0.21800
C2062       C  0.75568770  0.89726247  0.83297101    -0.21800
C2063       C  0.65520104  0.86860969  0.03433011    -0.22800
C2064       C  0.65560494  0.86714084  0.97733308    -0.22800
C2065       C  0.82680098  0.87098658  0.02609989    -0.22800
C2066       C  0.82719605  0.87002978  0.96907461    -0.22800
C2067       C  0.68899672  0.88493269  0.10432923    -0.18200
C2068       C  0.79179670  0.88614678  0.09925912    -0.18200
C2069       C  0.79298327  0.88240150  0.89665208    -0.18200
C2070       C  0.69013643  0.88025540  0.90243957    -0.18200
H2071       H  0.71199840  0.91038465  0.20043272     0.14700
H2072       H  0.76754210  0.91109808  0.19761395     0.14700
H2073       H  0.71335313  0.90350250  0.80178284     0.14700
H2074       H  0.76875948  0.90455515  0.79859410     0.14700
H2075       H  0.63777441  0.86275244  0.06158356     0.13000
H2076       H  0.63852097  0.86003559  0.95234487     0.13000
H2077       H  0.84394810  0.86479198  0.05190775     0.13000
H2078       H  0.84465920  0.86298976  0.94283601     0.13000
H2079       H  0.74090728  0.87248704  0.04956567     0.26300
H2080       H  0.74181859  0.86949105  0.95292306     0.26300
N2081       N  0.74619733  0.62610656  0.08815388    -0.36500
N2082       N  0.79024393  0.62220213  0.00049802    -0.57100
N2083       N  0.74632495  0.62586137  0.91669599    -0.36500
N2084       N  0.70232034  0.62413670  0.00416302    -0.57100
C2085       C  0.76926241  0.61975231  0.11783913     0.27100
C2086       C  0.72299550  0.61995846  0.12006397     0.27100
C2087       C  0.76944258  0.61865849  0.88509286     0.27100
C2088       C  0.72312111  0.62050454  0.88667165     0.27100
C2089       C  0.80607217  0.62870434  0.04462817     0.35700
C2090       C  0.80624122  0.62777873  0.95434680     0.35700
C2091       C  0.68643032  0.62999520  0.05055310     0.35700
C2092       C  0.68646049  0.63074097  0.95995666     0.35700
C2093       C  0.76051432  0.60926519  0.16895232    -0.21800
C2094       C  0.73148372  0.60940817  0.17035150    -0.21800
C2095       C  0.76071558  0.60833645  0.83475913    -0.21800
C2096       C  0.73169421  0.60952522  0.83572558    -0.21800
C2097       C  0.83199298  0.63867696  0.02628315    -0.22800
C2098       C  0.83212395  0.63802413  0.96935513    -0.22800
C2099       C  0.66054864  0.64051138  0.03559198    -0.22800
C2100       C  0.66060725  0.64108706  0.97862329    -0.22800
C2101       C  0.79793442  0.62458075  0.10121374    -0.18200
C2102       C  0.69440640  0.62496520  0.10626024    -0.18200
C2103       C  0.69450526  0.62638814  0.90304375    -0.18200
C2104       C  0.79820433  0.62290366  0.89883619    -0.18200
H2105       H  0.77364655  0.60207856  0.20192717     0.14700
H2106       H  0.71817618  0.60240203  0.20461953     0.14700
H2107       H  0.77387239  0.60068620  0.80063541     0.14700
H2108       H  0.71845279  0.60283940  0.80258745     0.14700
H2109       H  0.84899125  0.64609122  0.05112434     0.13000
H2110       H  0.84922533  0.64486280  0.94224841     0.13000
H2111       H  0.64346897  0.64757029  0.06278119     0.13000
H2112       H  0.64358119  0.64872975  0.95398953     0.13000
H2113       H  0.74628682  0.63672209  0.05057063     0.26300
H2114       H  0.74650229  0.63658611  0.95422922     0.26300
C2115       C  0.88311094  0.89672228  0.77565613     0.30100
C2116       C  0.85047924  0.86408006  0.71365600     0.30100
C2117       C  0.85389582  0.89003339  0.80186337    -0.06100
C2118       C  0.87564026  0.90929497  0.71856378    -0.06900
C2119       C  0.89537781  0.86764886  0.76137659    -0.06700
C2120       C  0.83731885  0.87266031  0.77088232    -0.06100
C2121       C  0.85905994  0.89221929  0.68728678    -0.06900
C2122       C  0.87894493  0.85065516  0.72944118    -0.06800
C2123       C  0.81319745  0.86734939  0.80314142    -0.32100
N2124       N  0.81437341  0.88180485  0.85194113     0.14400
C2125       C  0.83910948  0.89600350  0.85092607    -0.32100
H2126       H  0.84584828  0.90966368  0.88375588     0.16300
C2127       C  0.85332356  0.90620277  0.63859036    -0.31100
N2128       N  0.86599458  0.93169572  0.63887560     0.13100
C2129       C  0.87913330  0.93397764  0.68810570    -0.31100
C2130       C  0.89389291  0.82561275  0.72209933    -0.31400
N2131       N  0.91894744  0.82733571  0.74811399     0.13600
H2132       H  0.88714245  0.80736434  0.69949207     0.16200
C2133       C  0.91963754  0.85298039  0.77297371    -0.31400
H2134       H  0.93665291  0.86055430  0.79764483     0.16200
H2135       H  0.88969625  0.95280259  0.70089408     0.16200
H2136       H  0.79611219  0.85371051  0.79219605     0.16300
H2137       H  0.84040531  0.89851226  0.60575071     0.16200
C2138       C  0.88803634  0.61307785  0.21601138     0.30100
C2139       C  0.85159889  0.64476058  0.27875657     0.30100
C2140       C  0.87919096  0.60025073  0.27325218    -0.06100
C2141       C  0.89883813  0.64225049  0.23307206    -0.06900
C2142       C  0.85950354  0.61973513  0.18957348    -0.06700
C2143       C  0.86025774  0.61644184  0.30475494    -0.06100
C2144       C  0.88053665  0.65844625  0.26555055    -0.06900
C2145       C  0.84124014  0.63605811  0.22166354    -0.06800
C2146       C  0.85488785  0.60219853  0.35403571    -0.32100
N2147       N  0.86977758  0.57782855  0.35335835     0.14400
C2148       C  0.88556192  0.57706810  0.30588129    -0.32100
H2149       H  0.90137366  0.56112193  0.29858363     0.16300
C2150       C  0.89507752  0.68273176  0.27872221    -0.31100
N2151       N  0.92095990  0.68216309  0.25306906     0.13100
C2152       C  0.92349571  0.65729440  0.22571123    -0.31100
C2153       C  0.81690896  0.63972616  0.19252205    -0.31400
N2154       N  0.81937600  0.62566977  0.14344649     0.13600
H2155       H  0.79863150  0.65174133  0.20627512     0.16200
C2156       C  0.84543744  0.61327060  0.14151086    -0.31400
H2157       H  0.85352569  0.60023920  0.10787823     0.16200
H2158       H  0.94207731  0.65068721  0.20221956     0.16200
H2159       H  0.84146162  0.60902564  0.38840415     0.16300
H2160       H  0.88776536  0.69955129  0.30565420     0.16200
C2161       C  0.63695343  0.64852893  0.72803225     0.30100
C2162       C  0.60282133  0.61533477  0.79128470     0.30100
C2163       C  0.64977812  0.63800549  0.78288556    -0.06100
C2164       C  0.60872135  0.66184942  0.74727349    -0.06900
C2165       C  0.62784223  0.62060054  0.70005272    -0.06700
C2166       C  0.63220926  0.62141538  0.81574846    -0.06100
C2167       C  0.59139762  0.64523445  0.78015289    -0.06900
C2168       C  0.61011101  0.60408237  0.73257180    -0.06800
C2169       C  0.64679338  0.61573830  0.86391861    -0.32100
N2170       N  0.67291814  0.62744591  0.86065776     0.14400
C2171       C  0.67488293  0.64087482  0.81087917    -0.32100
H2172       H  0.69331674  0.65215325  0.79634556     0.16300
C2173       C  0.56694993  0.66073040  0.79093333    -0.31100
N2174       N  0.56858020  0.68570728  0.76366634     0.13100
C2175       C  0.59422972  0.68658597  0.73714738    -0.31100
C2176       C  0.60353419  0.58049034  0.70180536    -0.31400
N2177       N  0.61717984  0.58154795  0.65140493     0.13600
H2178       H  0.58994566  0.56357274  0.71550617     0.16200
C2179       C  0.63235257  0.60586730  0.65035536    -0.31400
H2180       H  0.64618664  0.61198461  0.61623606     0.16200
H2181       H  0.60145582  0.70355957  0.71074508     0.16200
H2182       H  0.63887579  0.60436030  0.89966879     0.16300
H2183       H  0.54888813  0.65420861  0.81578756     0.16200
C2184       C  0.63193257  0.86694339  0.28531965     0.30100
C2185       C  0.59794537  0.89947878  0.22462793     0.30100
C2186       C  0.64427012  0.87604914  0.22848604    -0.06100
C2187       C  0.60336626  0.85345545  0.27085970    -0.06900
C2188       C  0.62253894  0.89491788  0.31301161    -0.06700
C2189       C  0.62721385  0.89308970  0.19734029    -0.06100
C2190       C  0.58653359  0.87017139  0.23863807    -0.06900
C2191       C  0.60558435  0.91180258  0.28178400    -0.06800
C2192       C  0.64254058  0.89919307  0.14885635    -0.32100
N2193       N  0.66758742  0.88520271  0.14881107     0.14400
C2194       C  0.66884671  0.87116412  0.19773082    -0.32100
H2195       H  0.68626341  0.85807099  0.20985251     0.16300
C2196       C  0.56248166  0.85528425  0.22739067    -0.31100
N2197       N  0.56346608  0.83009452  0.25363376     0.13100
C2198       C  0.58789090  0.82920564  0.28164122    -0.31100
C2199       C  0.60046514  0.93614918  0.31261582    -0.31400
N2200       N  0.61340673  0.93423788  0.36215047     0.13600
H2201       H  0.58837156  0.95416483  0.29980648     0.16200
C2202       C  0.62691000  0.90897381  0.36254842    -0.31400
H2203       H  0.63937538  0.90154309  0.39630553     0.16200
H2204       H  0.59316165  0.81224893  0.30905660     0.16200
H2205       H  0.63636031  0.91301893  0.11592265     0.16300
H2206       H  0.54548937  0.86232786  0.20194306     0.16200
O2207       O  0.51290714  0.53366572  0.09067146    -0.80000
O2208       O  0.97158771  0.51211312  0.86877381    -0.80100
O2209       O  0.52226199  0.54638907  0.96145213    -0.80100
O2210       O  0.94724034  0.54453633  0.04047559    -0.80000
O2211       O  0.52517801  0.51644429  0.89115897    -0.80100
O2212       O  0.98608954  0.53665009  0.08755021    -0.80000
O2213       O  0.96064725  0.54373149  0.93270124    -0.80000
O2214       O  0.55484862  0.53089167  0.04680574    -0.80100
C2215       C  0.53905879  0.54165212  0.08415373     1.09700
C2216       C  0.96275158  0.53651050  0.88284942     1.09500
C2217       C  0.52914559  0.54069879  0.91173117     1.09700
C2218       C  0.96378937  0.55093063  0.07786580     1.09600
O2219       O  0.95616594  0.99634053  0.10127858    -0.80000
O2220       O  0.52259503  0.96215167  0.95140481    -0.80100
O2221       O  0.53211054  0.97948835  0.06050075    -0.80000
O2222       O  0.93527667  0.98929856  0.92444661    -0.80000
O2223       O  0.96926704  0.95864055  0.93104100    -0.80100
O2224       O  0.50466514  0.98509763  0.13514738    -0.80000
O2225       O  0.93009618  0.98650170  0.03223924    -0.80000
O2226       O  0.55296094  0.99469147  0.96245774    -0.80100
Co2227     Co  0.99314744  0.49637938  0.06476295     1.51500
Co2228     Co  0.99685778  0.48715415  0.91387307     1.51700
Co2229     Co  0.52443467  0.51458659  0.01188306     1.51600
Co2230     Co  0.94570661  0.51607398  0.98307478     1.51500
O2231       O  0.98644416  0.50388941  0.98677774    -1.42000
C2232       C  0.93712563  0.98206782  0.08110758     1.09600
C2233       C  0.54754928  0.96993322  0.94796947     1.09700
C2234       C  0.52500332  0.97287806  0.11051902     1.09600
C2235       C  0.94489934  0.96478557  0.91800028     1.09600
O2236       O  0.76889917  0.70349450  0.45960871    -0.80000
O2237       O  0.75744400  0.81591491  0.54765130    -0.80100
O2238       O  0.75506204  0.77953419  0.38124222    -0.80100
O2239       O  0.78610112  0.72738727  0.56728299    -0.80000
O2240       O  0.77138056  0.79960353  0.45264391    -0.80100
O2241       O  0.75481272  0.69465859  0.56202710    -0.80000
O2242       O  0.78811271  0.78288981  0.56223168    -0.80000
O2243       O  0.75438336  0.72496560  0.38703099    -0.80100
C2244       C  0.77065343  0.70787945  0.40884764     1.09700
C2245       C  0.78132385  0.80833452  0.56374959     1.09500
C2246       C  0.77321138  0.79478179  0.40233361     1.09700
C2247       C  0.77818169  0.70313784  0.57929783     1.09600
O2248       O  0.70309345  0.72677316  0.54940802    -0.80000
O2249       O  0.72023841  0.82426518  0.46448091    -0.80100
O2250       O  0.70109360  0.72491769  0.44851330    -0.80000
O2251       O  0.73214059  0.78620402  0.61334533    -0.80000
O2252       O  0.70383504  0.78647280  0.54424619    -0.80100
O2253       O  0.71655932  0.68380922  0.47741253    -0.80000
O2254       O  0.73018596  0.73046749  0.61973590    -0.80000
O2255       O  0.70120255  0.78391826  0.44110332    -0.80100
Co2256     Co  0.73572202  0.71618498  0.50193324     1.51500
Co2257     Co  0.73703605  0.79190927  0.49450625     1.51700
Co2258     Co  0.72966423  0.75340784  0.42256971     1.51600
Co2259     Co  0.75909404  0.75655629  0.58576575     1.51500
O2260       O  0.74997119  0.75415279  0.50382155    -1.42000
C2261       C  0.70672832  0.72390280  0.60006677     1.09600
C2262       C  0.70355630  0.81056703  0.43475087     1.09700
C2263       C  0.70224516  0.69811460  0.44366828     1.09600
C2264       C  0.70860905  0.79255644  0.59356153     1.09600
C2265       C  0.56000696  0.93467691  0.10786388    -0.13200
C2266       C  0.54050511  0.95111134  0.13815327     0.08900
C2267       C  0.53667873  0.94713183  0.19513118    -0.13200
C2268       C  0.55451419  0.92919672  0.22236678    -0.13200
C2269       C  0.57712980  0.91627989  0.19335828     0.08900
C2270       C  0.57776101  0.91674347  0.13537709    -0.13200
H2271       H  0.56186217  0.93600447  0.06314271     0.12900
H2272       H  0.52062426  0.95849729  0.21883518     0.12900
H2273       H  0.55106300  0.92608859  0.26637148     0.12900
H2274       H  0.59159291  0.90327740  0.11108173     0.12900
C2275       C  0.65078323  0.82183763  0.32586388    -0.13200
C2276       C  0.65269898  0.85084150  0.31822464     0.08900
C2277       C  0.67498021  0.86545528  0.34185400    -0.13200
C2278       C  0.69128024  0.85257574  0.38103554    -0.13200
C2279       C  0.68645663  0.82448101  0.39444337     0.08900
C2280       C  0.66708037  0.80880791  0.36478152    -0.13200
H2281       H  0.63754778  0.80894712  0.30119520     0.12900
H2282       H  0.67883339  0.88729427  0.33206238     0.12900
H2283       H  0.70748421  0.86455128  0.40079984     0.12900
H2284       H  0.66459138  0.78645761  0.37129737     0.12900
C2285       C  0.67028024  0.68963160  0.72139142    -0.13200
C2286       C  0.65434274  0.66912251  0.69450298     0.08900
C2287       C  0.65108654  0.67149670  0.63717151    -0.13200
C2288       C  0.66698427  0.69070614  0.60666034    -0.13200
C2289       C  0.68590562  0.70838601  0.63320993     0.08900
C2290       C  0.68674685  0.70843960  0.69093518    -0.13200
H2291       H  0.67016133  0.69121413  0.76599213     0.12900
H2292       H  0.63614910  0.65880695  0.61569199     0.12900
H2293       H  0.66523330  0.69091197  0.56205786     0.12900
H2294       H  0.70035044  0.72273234  0.71235497     0.12900
C2295       C  0.55416018  0.59619019  0.81317920    -0.13200
C2296       C  0.58323173  0.59599390  0.82306610     0.08900
C2297       C  0.59398173  0.57480808  0.85687364    -0.13200
C2298       C  0.57595051  0.55754048  0.88709180    -0.13200
C2299       C  0.54696530  0.55998166  0.88128313     0.08900
C2300       C  0.53600623  0.57862126  0.84301844    -0.13200
H2301       H  0.54545375  0.60948050  0.78173662     0.12900
H2302       H  0.61621094  0.57064080  0.85862776     0.12900
H2303       H  0.58463686  0.54171694  0.91395377     0.12900
H2304       H  0.51368579  0.57922630  0.83566143     0.12900
C2305       C  0.91608151  0.56931165  0.18994790    -0.13200
C2306       C  0.90885671  0.59718006  0.17911326     0.08900
C2307       C  0.92213104  0.61061890  0.13356820    -0.13200
C2308       C  0.94358205  0.59702804  0.10307031    -0.13200
C2309       C  0.95242939  0.57020414  0.11881828     0.08900
C2310       C  0.93906775  0.55688156  0.16361162    -0.13200
H2311       H  0.90271787  0.55593193  0.21443075     0.12900
H2312       H  0.91562929  0.63145325  0.12128975     0.12900
H2313       H  0.95215933  0.60666650  0.06573704     0.12900
H2314       H  0.94358629  0.53510427  0.17290733     0.12900
C2315       C  0.80989420  0.70646876  0.34023832    -0.13200
C2316       C  0.79056937  0.69231749  0.37449655     0.08900
C2317       C  0.78898388  0.66311827  0.37307456    -0.13200
C2318       C  0.80788869  0.64799172  0.33983779    -0.13200
C2319       C  0.82996765  0.66173476  0.31120298     0.08900
C2320       C  0.82931716  0.69120939  0.30812311    -0.13200
H2321       H  0.81003217  0.72920083  0.33869513     0.12900
H2322       H  0.77276310  0.65214678  0.39670619     0.12900
H2323       H  0.80519310  0.62553912  0.33676140     0.12900
H2324       H  0.84318840  0.70255129  0.28015432     0.12900
C2325       C  0.78756972  0.84622580  0.63003891    -0.13200
C2326       C  0.79943847  0.82718985  0.59211472     0.08900
C2327       C  0.82822881  0.82137591  0.59157568    -0.13200
C2328       C  0.84468153  0.83271327  0.63198859    -0.13200
C2329       C  0.83224828  0.84871938  0.67505845     0.08900
C2330       C  0.80394700  0.85702916  0.67130020    -0.13200
H2331       H  0.76541942  0.85145046  0.62975338     0.12900
H2332       H  0.83772507  0.80727313  0.56104585     0.12900
H2333       H  0.86709078  0.82937582  0.62839705     0.12900
H2334       H  0.79453533  0.87227409  0.69949099     0.12900
C2335       C  0.90324739  0.90533244  0.86832590    -0.13200
C2336       C  0.90189027  0.91266968  0.81205484     0.08900
C2337       C  0.91962366  0.93352190  0.79058715    -0.13200
C2338       C  0.93331865  0.95091691  0.82620703    -0.13200
C2339       C  0.93101881  0.94598123  0.88288740     0.08900
C2340       C  0.91757576  0.92235847  0.90416447    -0.13200
H2341       H  0.89244532  0.88708238  0.88474304     0.12900
H2342       H  0.92359576  0.93614023  0.74687432     0.12900
H2343       H  0.94593693  0.96800552  0.80967326     0.12900
H2344       H  0.91762379  0.91759974  0.94797493     0.12900
C2345       C  0.92962792  0.60152265  0.83694977    -0.13200
C2346       C  0.90768498  0.59115111  0.80570045     0.08900
C2347       C  0.90423848  0.56193365  0.80172356    -0.13200
C2348       C  0.92510830  0.54384612  0.81919153    -0.13200
C2349       C  0.94846166  0.55469688  0.84538207     0.08900
C2350       C  0.95050291  0.58363716  0.85460666    -0.13200
H2351       H  0.92997183  0.62307416  0.85047684     0.12900
H2352       H  0.88549243  0.55303943  0.78464109     0.12900
H2353       H  0.92180276  0.52139095  0.81672023     0.12900
H2354       H  0.96686050  0.59203360  0.88009162     0.12900
C2355       C  0.83190208  0.68851812  0.68448829    -0.13200
C2356       C  0.83140543  0.65930675  0.68670185     0.08900
C2357       C  0.80890925  0.64494875  0.66265002    -0.13200
C2358       C  0.79102354  0.65893168  0.62735153    -0.13200
C2359       C  0.79472168  0.68759969  0.61852511     0.08900
C2360       C  0.81415274  0.70252857  0.64974854    -0.13200
H2361       H  0.84549448  0.70071921  0.70990140     0.12900
H2362       H  0.80586903  0.62270977  0.66939562     0.12900
H2363       H  0.77496066  0.64738429  0.60624579     0.12900
H2364       H  0.81576852  0.72517036  0.64728927     0.12900
C2365       C  0.57349455  0.90639362  0.87528735    -0.13200
C2366       C  0.58798625  0.91846190  0.82990984     0.08900
C2367       C  0.59530370  0.94708427  0.83302333    -0.13200
C2368       C  0.58456237  0.96395729  0.87577141    -0.13200
C2369       C  0.56722054  0.95216698  0.91700497     0.08900
C2370       C  0.56286161  0.92314182  0.91803234    -0.13200
H2371       H  0.57068087  0.88397338  0.87844090     0.12900
H2372       H  0.60956639  0.95651093  0.80293430     0.12900
H2373       H  0.58838295  0.98635261  0.87472351     0.12900
H2374       H  0.54996618  0.91365268  0.95055710     0.12900
C2375       C  0.70085470  0.83082398  0.66042492    -0.13200
C2376       C  0.68945885  0.81116771  0.62448498     0.08900
C2377       C  0.66068117  0.81209574  0.61390024    -0.13200
C2378       C  0.64317140  0.83085964  0.64321259    -0.13200
C2379       C  0.65425644  0.84847167  0.68388406     0.08900
C2380       C  0.68357020  0.85017133  0.68760289    -0.13200
H2381       H  0.72327850  0.83178507  0.66634593     0.12900
H2382       H  0.65179285  0.79823711  0.58350843     0.12900
H2383       H  0.62110260  0.83154010  0.63397362     0.12900
H2384       H  0.69332407  0.86632311  0.71176667     0.12900
C2385       C  0.81451894  0.82303659  0.28069623    -0.13200
C2386       C  0.83081735  0.84339043  0.30708606     0.08900
C2387       C  0.83294278  0.84222543  0.36473064    -0.13200
C2388       C  0.81492018  0.82529659  0.39572038    -0.13200
C2389       C  0.79528891  0.80840872  0.36925990     0.08900
C2390       C  0.79616448  0.80621068  0.31154259    -0.13200
H2391       H  0.81553589  0.82037225  0.23626603     0.12900
H2392       H  0.84829531  0.85446469  0.38611785     0.12900
H2393       H  0.81582973  0.82608146  0.44045513     0.12900
H2394       H  0.78226333  0.79212856  0.29034217     0.12900
C2395       C  0.89952607  0.91547637  0.11763217    -0.13200
C2396       C  0.90143134  0.91548971  0.17552059     0.08900
C2397       C  0.92040815  0.93386457  0.19976367    -0.13200
C2398       C  0.93157050  0.95601182  0.16923946    -0.13200
C2399       C  0.92513262  0.95898264  0.11324146     0.08900
C2400       C  0.91031122  0.93774175  0.08687494    -0.13200
H2401       H  0.88886899  0.89885579  0.09629236     0.12900
H2402       H  0.92589207  0.93173243  0.24264333     0.12900
H2403       H  0.94494489  0.97091868  0.18961299     0.12900
H2404       H  0.90718423  0.93826186  0.04267962     0.12900
C2405       C  0.67654462  0.64514883  0.34369427    -0.13200
C2406       C  0.65507671  0.66059698  0.31867943     0.08900
C2407       C  0.65325577  0.68949240  0.32768689    -0.13200
C2408       C  0.66843838  0.70157644  0.36922047    -0.13200
C2409       C  0.68662964  0.68504210  0.40029505     0.08900
C2410       C  0.69168973  0.65707943  0.38569670    -0.13200
H2411       H  0.68031128  0.62331502  0.33316183     0.12900
H2412       H  0.64073919  0.70295350  0.30251032     0.12900
H2413       H  0.66584991  0.72386191  0.37692967     0.12900
H2414       H  0.70711000  0.64451997  0.40673698     0.12900
C2415       C  0.55911784  0.58213583  0.20825587    -0.13200
C2416       C  0.58121520  0.59812318  0.18504495     0.08900
C2417       C  0.58318098  0.60114338  0.12729542    -0.13200
C2418       C  0.56842395  0.58325966  0.09376947    -0.13200
C2419       C  0.54989899  0.56388148  0.11784528     0.08900
C2420       C  0.54366966  0.56466804  0.17465860    -0.13200
H2421       H  0.55413484  0.58260001  0.25213308     0.12900
H2422       H  0.59676358  0.61658031  0.10789935     0.12900
H2423       H  0.57199287  0.58400372  0.04928241     0.12900
H2424       H  0.52818035  0.55070740  0.19322378     0.12900
loop_ 
_geom_bond_atom_site_label_1 
_geom_bond_atom_site_label_2 
_geom_bond_distance 
_geom_bond_site_symmetry_2 
_ccdc_geom_bond_type 
C1            C3   1.557       .  S
C1            C5   1.558       .  S
C1            C4   1.539       .  S
C1          C598   1.499       .  S
C2            C6   1.540       .  S
C2            C8   1.546       .  S
C2            C7   1.556       .  S
C2          C588   1.494       .  S
C3           C11   1.395       .  A
C3            C6   1.380       .  A
C4           C15   1.385       .  A
C4            C7   1.385       .  A
C5           C19   1.397       .  A
C5            C8   1.381       .  A
C6            C9   1.390       .  A
C7           C13   1.397       .  A
C8           C16   1.388       .  A
C9           N10   1.364       .  A
C9           H22   1.082       .  S
N10          C11   1.365       .  A
N10         C284   1.466       .  S
C11          H12   1.081       .  S
C13          N14   1.363       .  A
C13          H23   1.079       .  S
N14          C15   1.361       .  A
N14          C44   1.461       .  S
C15          H21   1.082       .  S
C16          N17   1.358       .  A
C16          H18   1.081       .  S
N17          C19   1.368       .  A
N17         C101   1.465       .  S
C19          H20   1.081       .  S
N24          C29   1.358       .  A
N24        C1240   1.359       .  A
N24          H56   1.040       .  S
N25          C32   1.359       .  A
N25          C33   1.358       .  A
N26          C31   1.359       .  A
N26        C1242   1.358       .  A
N26          H57   1.041       .  S
N27          C34   1.358       .  A
N27          C35   1.359       .  A
C28          C36   1.385       .  A
C28          C44   1.422       .  A
C28        N1236   1.359   1_455  A
C29          C45   1.424       .  A
C29          C37   1.387       .  A
C30          C38   1.387       .  A
C30          C47   1.424       .  A
C30        N1238   1.358   1_455  A
C31          C46   1.423       .  A
C31          C39   1.385       .  A
C32          C44   1.425       .  A
C32          C40   1.385       .  A
C33          C47   1.425       .  A
C33          C41   1.386       .  A
C34          C42   1.386       .  A
C34          C45   1.423       .  A
C35          C43   1.385       .  A
C35          C46   1.424       .  A
C36        C1249   1.379   1_455  A
C36          H48   1.082       .  S
C37        C1248   1.379       .  A
C37          H49   1.082       .  S
C38        C1251   1.378   1_455  A
C38          H50   1.082       .  S
C39        C1250   1.378       .  A
C39          H51   1.082       .  S
C40          C41   1.377       .  A
C40          H52   1.082       .  S
C41          H53   1.082       .  S
C42          C43   1.376       .  A
C42          H54   1.082       .  S
C43          H55   1.082       .  S
C45         N333   1.457       .  S
C46          N74   1.461       .  S
C47         N379   1.459       .  S
C58          C60   1.550       .  S
C58          C62   1.535       .  S
C58          C61   1.557       .  S
C58         C568   1.504       .  S
C59          C63   1.553       .  S
C59          C65   1.541       .  S
C59          C64   1.556       .  S
C59         C578   1.508       .  S
C60          C68   1.392       .  A
C60          C63   1.385       .  A
C61          C72   1.396       .  A
C61          C64   1.389       .  A
C62          C76   1.383       .  A
C62          C65   1.380       .  A
C63          C66   1.392       .  A
C64          C70   1.392       .  A
C65          C73   1.389       .  A
C66          N67   1.358       .  A
C66          H79   1.081       .  S
N67          C68   1.361       .  A
N67         C250   1.458       .  S
C68          H69   1.081       .  S
C70          N71   1.360       .  A
C70          H80   1.080       .  S
N71          C72   1.364       .  A
N71         C136   1.464       .  S
C72          H78   1.081       .  S
C73          N74   1.368       .  A
C73          H75   1.082       .  S
N74          C76   1.363       .  A
C76          H77   1.082       .  S
N81          C85   1.359       .  A
N81         C692   1.360   1_545  A
N81         H113   1.041       .  S
N82          C89   1.361       .  A
N82          C90   1.362       .  A
N83          C87   1.363       .  A
N83         C694   1.362   1_545  A
N83         H114   1.040       .  S
N84          C91   1.360       .  A
N84          C92   1.359       .  A
C85          C93   1.387       .  A
C85         C101   1.425       .  A
C86         C102   1.424       .  A
C86          C94   1.385       .  A
C86         N687   1.360       .  A
C87          C95   1.386       .  A
C87         C104   1.431       .  A
C88         C103   1.432       .  A
C88          C96   1.387       .  A
C88         N689   1.362       .  A
C89         C101   1.433       .  A
C89          C97   1.387       .  A
C90         C104   1.431       .  A
C90          C98   1.385       .  A
C91          C99   1.385       .  A
C91         C102   1.426       .  A
C92         C100   1.385       .  A
C92         C103   1.426       .  A
C93         C700   1.377   1_545  A
C93         H105   1.082       .  S
C94         C699   1.377       .  A
C94         H106   1.082       .  S
C95         C702   1.379   1_545  A
C95         H107   1.082       .  S
C96         C701   1.379       .  A
C96         H108   1.082       .  S
C97          C98   1.380       .  A
C97         H109   1.082       .  S
C98         H110   1.082       .  S
C99         C100   1.377       .  A
C99         H111   1.082       .  S
C100        H112   1.082       .  S
C102        N382   1.465       .  S
C103        N165   1.465       .  S
C104        N359   1.470       .  S
N115        C119   1.360       .  A
N115        C726   1.360   1_545  A
N115        H147   1.040       .  S
N116        C123   1.352       .  A
N116        C124   1.353       .  A
N117        C121   1.359       .  A
N117        C728   1.357   1_545  A
N117        H148   1.041       .  S
N118        C125   1.360       .  A
N118        C126   1.360       .  A
C119        C127   1.385       .  A
C119        C135   1.425       .  A
C120        C136   1.427       .  A
C120        C128   1.387       .  A
C120        N721   1.360       .  A
C121        C129   1.385       .  A
C121        C138   1.422       .  A
C122        C137   1.424       .  A
C122        C130   1.387       .  A
C122        N723   1.357       .  A
C123        C135   1.411       .  A
C123        C131   1.384       .  A
C124        C138   1.412       .  A
C124        C132   1.385       .  A
C125        C133   1.385       .  A
C125        C136   1.427       .  A
C126        C134   1.386       .  A
C126        C137   1.428       .  A
C127        C734   1.381   1_545  A
C127        H139   1.082       .  S
C128        C733   1.381       .  A
C128        H140   1.082       .  S
C129        C736   1.380   1_545  A
C129        H141   1.082       .  S
C130        C735   1.380       .  A
C130        H142   1.082       .  S
C131        C132   1.373       .  A
C131        H143   1.082       .  S
C132        H144   1.082       .  S
C133        C134   1.378       .  A
C133        H145   1.082       .  S
C134        H146   1.082       .  S
C135        N329   1.451       .  S
C137        N310   1.462       .  S
C138        N215   1.451       .  S
C149        C151   1.531       .  S
C149        C153   1.545       .  S
C149        C152   1.557       .  S
C149        C548   1.502       .  S
C150        C154   1.555       .  S
C150        C156   1.550       .  S
C150        C155   1.556       .  S
C150        C561   1.512       .  S
C151        C159   1.384       .  A
C151        C154   1.377       .  A
C152        C163   1.395       .  A
C152        C155   1.392       .  A
C153        C167   1.388       .  A
C153        C156   1.386       .  A
C154        C157   1.395       .  A
C155        C161   1.391       .  A
C156        C164   1.392       .  A
C157        N158   1.363       .  A
C157        H170   1.081       .  S
N158        C159   1.357       .  A
N158        C252   1.456       .  S
C159        H160   1.082       .  S
C161        N162   1.363       .  A
C161        H171   1.081       .  S
N162        C163   1.366       .  A
N162        C193   1.465       .  S
C163        H169   1.082       .  S
C164        N165   1.368       .  A
C164        H166   1.082       .  S
N165        C167   1.363       .  A
C167        H168   1.082       .  S
N172        C177   1.360       .  A
N172        C176   1.358       .  A
N172        H204   1.040       .  S
N173        C181   1.362       .  A
N173       C1392   1.360       .  A
N174        C179   1.360       .  A
N174        C178   1.362       .  A
N174        H205   1.041       .  S
N175        C183   1.358       .  A
N175       C1394   1.361       .  A
C176        C184   1.387       .  A
C176        C192   1.425       .  A
C177        C193   1.426       .  A
C177        C185   1.386       .  A
C178        C186   1.386       .  A
C178        C195   1.429       .  A
C179        C194   1.428       .  A
C179        C187   1.387       .  A
C180        C192   1.428       .  A
C180        C188   1.385       .  A
C180       N1385   1.360   1_455  A
C181        C195   1.430       .  A
C181        C189   1.385       .  A
C182        C190   1.384       .  A
C182        C193   1.425       .  A
C182       N1387   1.361   1_455  A
C183        C191   1.387       .  A
C183        C194   1.428       .  A
C184        C185   1.381       .  A
C184        H196   1.082       .  S
C185        H197   1.082       .  S
C186        C187   1.380       .  A
C186        H198   1.082       .  S
C187        H199   1.082       .  S
C188       C1401   1.378   1_455  A
C188        H200   1.082       .  S
C189       C1400   1.378       .  A
C189        H201   1.082       .  S
C190       C1403   1.377   1_455  A
C190        H202   1.082       .  S
C191       C1402   1.377       .  A
C191        H203   1.082       .  S
C192        N356   1.460       .  S
C194        N313   1.463       .  S
C195        N219   1.471       .  S
C206        C208   1.543       .  S
C206        C210   1.534       .  S
C206        C209   1.565       .  S
C206        C538   1.499       .  S
C207        C211   1.549       .  S
C207        C213   1.549       .  S
C207        C212   1.561       .  S
C207        C528   1.505       .  S
C208        C216   1.389       .  A
C208        C211   1.379       .  A
C209        C220   1.402       .  A
C209        C212   1.391       .  A
C210        C224   1.383       .  A
C210        C213   1.380       .  A
C211        C214   1.391       .  A
C212        C218   1.396       .  A
C213        C221   1.395       .  A
C214        N215   1.356       .  A
C214        H227   1.081       .  S
N215        C216   1.359       .  A
C216        H217   1.082       .  S
C218        N219   1.360       .  A
C218        H228   1.078       .  S
N219        C220   1.366       .  A
C220        H226   1.080       .  S
C221        N222   1.371       .  A
C221        H223   1.082       .  S
N222        C224   1.361       .  A
N222        C286   1.466       .  S
C224        H225   1.082       .  S
N229        C234   1.356       .  A
N229        C233   1.358       .  A
N229        H261   1.041       .  S
N230        C237   1.358       .  A
N230        C238   1.357   1_554  A
N231        C236   1.359       .  A
N231        C235   1.357       .  A
N231        H262   1.042       .  S
N232        C239   1.359   1_556  A
N232        C240   1.361       .  A
C233        C241   1.386       .  A
C233        C249   1.422       .  A
C234        C250   1.421       .  A
C234        C242   1.386       .  A
C235        C243   1.387       .  A
C235        C252   1.422       .  A
C236        C251   1.421       .  A
C236        C244   1.385       .  A
C237        C249   1.425       .  A
C237        C245   1.386       .  A
C238        C252   1.423       .  A
C238        C246   1.386       .  A
C239        C247   1.386       .  A
C239        C250   1.428       .  A
C240        C248   1.385       .  A
C240        C251   1.427       .  A
C241        C242   1.379       .  A
C241        H253   1.082       .  S
C242        H254   1.082       .  S
C243        C244   1.378       .  A
C243        H255   1.082       .  S
C244        H256   1.082       .  S
C245        C246   1.378   1_554  A
C245        H257   1.082       .  S
C246        H258   1.082       .  S
C247        C248   1.378   1_554  A
C247        H259   1.082       .  S
C248        H260   1.082       .  S
C249        N375   1.459       .  S
C251        N306   1.463       .  S
N263        C268   1.362       .  A
N263        C267   1.362       .  A
N263        H295   1.040       .  S
N264        C271   1.360       .  A
N264        C272   1.359   1_554  A
N265        C270   1.364       .  A
N265        C269   1.363       .  A
N265        H296   1.040       .  S
N266        C273   1.361       .  A
N266        C274   1.362   1_554  A
C267        C275   1.387       .  A
C267        C283   1.431       .  A
C268        C284   1.429       .  A
C268        C276   1.386       .  A
C269        C277   1.387       .  A
C269        C286   1.433       .  A
C270        C285   1.433       .  A
C270        C278   1.386       .  A
C271        C283   1.424       .  A
C271        C279   1.385       .  A
C272        C286   1.424       .  A
C272        C280   1.385       .  A
C273        C281   1.385       .  A
C273        C284   1.430       .  A
C274        C282   1.386       .  A
C274        C285   1.431       .  A
C275        C276   1.381       .  A
C275        H287   1.082       .  S
C276        H288   1.082       .  S
C277        C278   1.381       .  A
C277        H289   1.082       .  S
C278        H290   1.082       .  S
C279        C280   1.376   1_554  A
C279        H291   1.082       .  S
C280        H292   1.082       .  S
C281        C282   1.377   1_554  A
C281        H293   1.082       .  S
C282        H294   1.081       .  S
C283        N336   1.465       .  S
C285        N352   1.472       .  S
C297        C299   1.546       .  S
C297        C301   1.535       .  S
C297        C300   1.555       .  S
C297        C518   1.483       .  S
C298        C302   1.554       .  S
C298        C304   1.553       .  S
C298        C303   1.538       .  S
C298        C511   1.486       .  S
C299        C307   1.389       .  A
C299        C302   1.381       .  A
C300        C311   1.397       .  A
C300        C303   1.376       .  A
C301        C315   1.382       .  A
C301        C304   1.379       .  A
C302        C305   1.393       .  A
C303        C309   1.387       .  A
C304        C312   1.394       .  A
C305        N306   1.367       .  A
C305        H318   1.082       .  S
N306        C307   1.360       .  A
C307        H308   1.082       .  S
C309        N310   1.359       .  A
C309        H319   1.082       .  S
N310        C311   1.364       .  A
C311        H317   1.080       .  S
C312        N313   1.367       .  A
C312        H314   1.081       .  S
N313        C315   1.361       .  A
C315        H316   1.082       .  S
C320        C322   1.561       .  S
C320        C324   1.549       .  S
C320        C323   1.544       .  S
C320        C488   1.513       .  S
C321        C325   1.549       .  S
C321        C327   1.535       .  S
C321        C326   1.552       .  S
C321        C501   1.507       .  S
C322        C330   1.396       .  A
C322        C325   1.392       .  A
C323        C334   1.385       .  A
C323        C326   1.386       .  A
C324        C338   1.392       .  A
C324        C327   1.383       .  A
C325        C328   1.390       .  A
C326        C332   1.392       .  A
C327        C335   1.383       .  A
C328        N329   1.357       .  A
C328        H341   1.081       .  S
N329        C330   1.353       .  A
C330        H331   1.077       .  S
C332        N333   1.363       .  A
C332        H342   1.081       .  S
N333        C334   1.359       .  A
C334        H340   1.082       .  S
C335        N336   1.362       .  A
C335        H337   1.082       .  S
N336        C338   1.370       .  A
C338        H339   1.082       .  S
C343        C345   1.558       .  S
C343        C347   1.561       .  S
C343        C346   1.542       .  S
C343        C468   1.509       .  S
C344        C348   1.562       .  S
C344        C350   1.545       .  S
C344        C349   1.549       .  S
C344        C478   1.509       .  S
C345        C353   1.397       .  A
C345        C348   1.387       .  A
C346        C357   1.388       .  A
C346        C349   1.382       .  A
C347        C361   1.400       .  A
C347        C350   1.386       .  A
C348        C351   1.399       .  A
C349        C355   1.392       .  A
C350        C358   1.389       .  A
C351        N352   1.366       .  A
C351        H364   1.080       .  S
N352        C353   1.365       .  A
C353        H354   1.081       .  S
C355        N356   1.363       .  A
C355        H365   1.081       .  S
N356        C357   1.363       .  A
C357        H363   1.082       .  S
C358        N359   1.364       .  A
C358        H360   1.082       .  S
N359        C361   1.368       .  A
C361        H362   1.081       .  S
C366        C368   1.542       .  S
C366        C370   1.548       .  S
C366        C369   1.555       .  S
C366        C458   1.496       .  S
C367        C371   1.552       .  S
C367        C373   1.553       .  S
C367        C372   1.536       .  S
C367        C451   1.494       .  S
C368        C376   1.386       .  A
C368        C371   1.384       .  A
C369        C380   1.394       .  A
C369        C372   1.384       .  A
C370        C384   1.392       .  A
C370        C373   1.378       .  A
C371        C374   1.394       .  A
C372        C378   1.383       .  A
C373        C381   1.394       .  A
C374        N375   1.363       .  A
C374        H387   1.081       .  S
N375        C376   1.362       .  A
C376        H377   1.082       .  S
C378        N379   1.360       .  A
C378        H388   1.082       .  S
N379        C380   1.362       .  A
C380        H386   1.079       .  S
C381        N382   1.365       .  A
C381        H383   1.082       .  S
N382        C384   1.362       .  A
C384        H385   1.082       .  S
O389        C397   1.308       .  A
O389      Co1621   2.117   1_445  S
O390        C398   1.276       .  A
O390       Co410   2.029   1_545  S
O391        C399   1.264       .  A
O391       Co411   1.951   1_556  S
O392        C400   1.254       .  A
O392       Co412   1.941   1_554  S
O393        C399   1.274       .  A
O393      Co1622   2.011   1_445  S
O394        C400   1.285       .  A
O394       Co409   2.019   1_545  S
O395        C398   1.253       .  A
O395       Co412   1.921       .  S
O396        C397   1.263       .  A
O396       Co411   1.868       .  S
C397        C601   1.441       .  S
C398        C531   1.437       .  S
C399        C481   1.442       .  S
C400        C491   1.440       .  S
O401        C414   1.246       .  A
O401      Co1015   1.945       .  S
O402        C415   1.246       .  A
O402      Co2228   1.948   1_455  S
O403        C416   1.286       .  A
O403      Co1017   2.083       .  S
O404        C417   1.260       .  A
O404      Co1018   1.980       .  S
O405        C417   1.244       .  A
O405      Co1016   1.932       .  S
O406        C416   1.260       .  A
O406      Co2227   1.881   1_455  S
O407        C414   1.255       .  A
O407      Co1018   1.979   1_554  S
O408        C415   1.260       .  A
O408      Co1017   2.014   1_556  S
Co409      O1601   2.117   1_565  S
Co409      O1007   1.945       .  S
Co409      O2224   1.881       .  S
Co409       O413   1.954   1_564  S
Co410      O1605   2.011   1_565  S
Co410      O2220   1.948       .  S
Co410      O1011   1.932       .  S
Co410       O413   1.981   1_565  S
Co411      O1009   2.083   1_545  S
Co411      O1014   2.014   1_544  S
Co411      O1625   1.992   1_454  S
Co412      O1010   1.980   1_545  S
Co412      O1013   1.979   1_546  S
Co412       O413   2.025       .  S
O413      Co1623   1.992   1_556  S
C414        C581   1.457       .  S
C415        C551   1.449       .  S
C416        C448   1.445       .  S
C417        C521   1.412       .  S
O418        C426   1.245       .  A
O418       Co438   1.949       .  S
O419        C427   1.263       .  A
O419       Co439   1.995       .  S
O420        C428   1.251       .  A
O420       Co440   1.989       .  S
O421        C429   1.249       .  A
O421       Co441   1.931       .  S
O422        C428   1.237       .  A
O422       Co439   1.934       .  S
O423        C429   1.267       .  A
O423       Co438   2.015       .  S
O424        C427   1.253       .  A
O424       Co441   1.944       .  S
O425        C426   1.249       .  A
O425       Co440   1.969       .  S
C426        C498   1.443       .  S
C427        C508   1.435       .  S
C428        C571   1.457       .  S
C429        C541   1.451       .  S
O430        C443   1.249       .  A
O430       Co438   1.966       .  S
O431        C444   1.268       .  A
O431       Co439   1.889       .  S
O432        C445   1.283       .  A
O432       Co440   2.014       .  S
O433        C446   1.266       .  A
O433       Co441   2.003       .  S
O434        C446   1.253       .  A
O434       Co439   1.975       .  S
O435        C445   1.274       .  A
O435       Co438   1.899       .  S
O436        C443   1.266       .  A
O436       Co441   2.017       .  S
O437        C444   1.284       .  A
O437       Co440   2.022       .  S
Co438       O442   1.936       .  S
Co439       O442   1.914       .  S
Co440       O442   2.214       .  S
Co441       O442   2.042       .  S
C443        C471   1.461       .  S
C444        C461   1.447       .  S
C445        C591   1.444       .  S
C446        C558   1.457       .  S
C447        C448   1.400       .  A
C447        C452   1.383       .  A
C447        H453   1.084       .  S
C448        C449   1.397       .  A
C449        C450   1.382       .  A
C449        H454   1.083       .  S
C450        C451   1.405       .  A
C450        H455   1.082       .  S
C451        C452   1.401       .  A
C452        H456   1.077       .  S
C457        C458   1.398       .  A
C457        C462   1.382       .  A
C457        H463   1.074       .  S
C458        C459   1.406       .  A
C459        C460   1.384       .  A
C459        H464   1.083       .  S
C460        C461   1.397       .  A
C460        H465   1.083       .  S
C461        C462   1.402       .  A
C462        H466   1.083       .  S
C467        C468   1.409       .  A
C467        C472   1.391       .  A
C467        H473   1.080       .  S
C468        C469   1.403       .  A
C469        C470   1.390       .  A
C469        H474   1.079       .  S
C470        C471   1.404       .  A
C470        H475   1.083       .  S
C471        C472   1.397       .  A
C472        H476   1.083       .  S
C477        C478   1.411       .  A
C477        C482   1.393       .  A
C477        H483   1.081       .  S
C478        C479   1.404       .  A
C479        C480   1.386       .  A
C479        H484   1.077       .  S
C480        C481   1.395       .  A
C480        H485   1.084       .  S
C481        C482   1.394       .  A
C482        H486   1.082       .  S
C487        C488   1.397       .  A
C487        C492   1.379       .  A
C487        H493   1.070       .  S
C488        C489   1.409       .  A
C489        C490   1.397       .  A
C489        H494   1.083       .  S
C490        C491   1.401       .  A
C490        H495   1.083       .  S
C491        C492   1.395       .  A
C492        H496   1.084       .  S
C497        C498   1.396       .  A
C497        C502   1.391       .  A
C497        H503   1.084       .  S
C498        C499   1.394       .  A
C499        C500   1.386       .  A
C499        H504   1.084       .  S
C500        C501   1.406       .  A
C500        H505   1.081       .  S
C501        C502   1.407       .  A
C502        H506   1.079       .  S
C507        C508   1.394       .  A
C507        C512   1.383       .  A
C507        H513   1.082       .  S
C508        C509   1.396       .  A
C509        C510   1.380       .  A
C509        H514   1.084       .  S
C510        C511   1.404       .  A
C510        H515   1.078       .  S
C511        C512   1.407       .  A
C512        H516   1.081       .  S
C517        C518   1.408       .  A
C517        C522   1.382       .  A
C517        H523   1.083       .  S
C518        C519   1.398       .  A
C519        C520   1.374       .  A
C519        H524   1.075       .  S
C520        C521   1.391       .  A
C520        H525   1.084       .  S
C521        C522   1.390       .  A
C522        H526   1.083       .  S
C527        C528   1.398       .  A
C527        C532   1.383       .  A
C527        H533   1.077       .  S
C528        C529   1.406       .  A
C529        C530   1.387       .  A
C529        H534   1.082       .  S
C530        C531   1.396       .  A
C530        H535   1.084       .  S
C531        C532   1.401       .  A
C532        H536   1.084       .  S
C537        C538   1.393       .  A
C537        C542   1.379       .  A
C537        H543   1.077       .  S
C538        C539   1.412       .  A
C539        C540   1.391       .  A
C539        H544   1.082       .  S
C540        C541   1.394       .  A
C540        H545   1.083       .  S
C541        C542   1.406       .  A
C542        H546   1.084       .  S
C547        C548   1.404       .  A
C547        C552   1.386       .  A
C547        H553   1.080       .  S
C548        C549   1.412       .  A
C549        C550   1.391       .  A
C549        H554   1.080       .  S
C550        C551   1.396       .  A
C550        H555   1.084       .  S
C551        C552   1.400       .  A
C552        H556   1.084       .  S
C557        C558   1.398       .  A
C557        C562   1.384       .  A
C557        H563   1.082       .  S
C558        C559   1.401       .  A
C559        C560   1.396       .  A
C559        H564   1.083       .  S
C560        C561   1.407       .  A
C560        H565   1.080       .  S
C561        C562   1.403       .  A
C562        H566   1.080       .  S
C567        C568   1.408       .  A
C567        C572   1.390       .  A
C567        H573   1.080       .  S
C568        C569   1.401       .  A
C569        C570   1.385       .  A
C569        H574   1.080       .  S
C570        C571   1.403       .  A
C570        H575   1.084       .  S
C571        C572   1.398       .  A
C572        H576   1.083       .  S
C577        C578   1.404       .  A
C577        C582   1.389       .  A
C577        H583   1.081       .  S
C578        C579   1.401       .  A
C579        C580   1.388       .  A
C579        H584   1.081       .  S
C580        C581   1.403       .  A
C580        H585   1.083       .  S
C581        C582   1.400       .  A
C582        H586   1.083       .  S
C587        C588   1.407       .  A
C587        C592   1.385       .  A
C587        H593   1.083       .  S
C588        C589   1.395       .  A
C589        C590   1.380       .  A
C589        H594   1.075       .  S
C590        C591   1.403       .  A
C590        H595   1.083       .  S
C591        C592   1.395       .  A
C592        H596   1.083       .  S
C597        C598   1.406       .  A
C597        C602   1.389       .  A
C597        H603   1.080       .  S
C598        C599   1.404       .  A
C599        C600   1.383       .  A
C599        H604   1.080       .  S
C600        C601   1.396       .  A
C600        H605   1.084       .  S
C601        C602   1.396       .  A
C602        H606   1.084       .  S
C607        C609   1.557       .  S
C607        C611   1.558       .  S
C607        C610   1.539       .  S
C607       C1204   1.499       .  S
C608        C612   1.540       .  S
C608        C614   1.546       .  S
C608        C613   1.556       .  S
C608       C1194   1.494       .  S
C609        C617   1.395       .  A
C609        C612   1.380       .  A
C610        C621   1.385       .  A
C610        C613   1.385       .  A
C611        C625   1.397       .  A
C611        C614   1.381       .  A
C612        C615   1.390       .  A
C613        C619   1.397       .  A
C614        C622   1.388       .  A
C615        N616   1.364       .  A
C615        H628   1.082       .  S
N616        C617   1.365       .  A
N616        C890   1.466       .  S
C617        H618   1.081       .  S
C619        N620   1.363       .  A
C619        H629   1.079       .  S
N620        C621   1.361       .  A
N620        C650   1.461       .  S
C621        H627   1.082       .  S
C622        N623   1.358       .  A
C622        H624   1.081       .  S
N623        C625   1.368       .  A
N623        C707   1.465       .  S
C625        H626   1.081       .  S
N630        C635   1.358       .  A
N630       C1846   1.359       .  A
N630        H662   1.040       .  S
N631        C638   1.359       .  A
N631        C639   1.358       .  A
N632        C637   1.359       .  A
N632       C1848   1.358       .  A
N632        H663   1.041       .  S
N633        C640   1.358       .  A
N633        C641   1.359       .  A
C634        C642   1.385       .  A
C634        C650   1.422       .  A
C634       N1842   1.359   1_455  A
C635        C651   1.424       .  A
C635        C643   1.387       .  A
C636        C644   1.387       .  A
C636        C653   1.424       .  A
C636       N1844   1.358   1_455  A
C637        C652   1.423       .  A
C637        C645   1.385       .  A
C638        C650   1.425       .  A
C638        C646   1.385       .  A
C639        C653   1.425       .  A
C639        C647   1.386       .  A
C640        C648   1.386       .  A
C640        C651   1.423       .  A
C641        C649   1.385       .  A
C641        C652   1.424       .  A
C642       C1855   1.379   1_455  A
C642        H654   1.082       .  S
C643       C1854   1.379       .  A
C643        H655   1.082       .  S
C644       C1857   1.378   1_455  A
C644        H656   1.082       .  S
C645       C1856   1.378       .  A
C645        H657   1.082       .  S
C646        C647   1.377       .  A
C646        H658   1.082       .  S
C647        H659   1.082       .  S
C648        C649   1.376       .  A
C648        H660   1.082       .  S
C649        H661   1.082       .  S
C651        N939   1.457       .  S
C652        N680   1.461       .  S
C653        N985   1.459       .  S
C664        C666   1.550       .  S
C664        C668   1.535       .  S
C664        C667   1.557       .  S
C664       C1174   1.504       .  S
C665        C669   1.553       .  S
C665        C671   1.541       .  S
C665        C670   1.556       .  S
C665       C1184   1.508       .  S
C666        C674   1.392       .  A
C666        C669   1.385       .  A
C667        C678   1.396       .  A
C667        C670   1.389       .  A
C668        C682   1.383       .  A
C668        C671   1.380       .  A
C669        C672   1.392       .  A
C670        C676   1.392       .  A
C671        C679   1.389       .  A
C672        N673   1.358       .  A
C672        H685   1.081       .  S
N673        C674   1.361       .  A
N673        C856   1.458       .  S
C674        H675   1.081       .  S
C676        N677   1.360       .  A
C676        H686   1.080       .  S
N677        C678   1.364       .  A
N677        C742   1.464       .  S
C678        H684   1.081       .  S
C679        N680   1.368       .  A
C679        H681   1.082       .  S
N680        C682   1.363       .  A
C682        H683   1.082       .  S
N687        C691   1.359       .  A
N687        H719   1.041       .  S
N688        C695   1.361       .  A
N688        C696   1.362       .  A
N689        C693   1.363       .  A
N689        H720   1.040       .  S
N690        C697   1.360       .  A
N690        C698   1.359       .  A
C691        C699   1.387       .  A
C691        C707   1.425       .  A
C692        C708   1.424       .  A
C692        C700   1.385       .  A
C693        C701   1.386       .  A
C693        C710   1.431       .  A
C694        C709   1.432       .  A
C694        C702   1.387       .  A
C695        C707   1.433       .  A
C695        C703   1.387       .  A
C696        C710   1.431       .  A
C696        C704   1.385       .  A
C697        C705   1.385       .  A
C697        C708   1.426       .  A
C698        C706   1.385       .  A
C698        C709   1.426       .  A
C699        H711   1.082       .  S
C700        H712   1.082       .  S
C701        H713   1.082       .  S
C702        H714   1.082       .  S
C703        C704   1.380       .  A
C703        H715   1.082       .  S
C704        H716   1.082       .  S
C705        C706   1.377       .  A
C705        H717   1.082       .  S
C706        H718   1.082       .  S
C708        N988   1.465       .  S
C709        N771   1.465       .  S
C710        N965   1.470       .  S
N721        C725   1.360       .  A
N721        H753   1.040       .  S
N722        C729   1.352       .  A
N722        C730   1.353       .  A
N723        C727   1.359       .  A
N723        H754   1.041       .  S
N724        C731   1.360       .  A
N724        C732   1.360       .  A
C725        C733   1.385       .  A
C725        C741   1.425       .  A
C726        C742   1.427       .  A
C726        C734   1.387       .  A
C727        C735   1.385       .  A
C727        C744   1.422       .  A
C728        C743   1.424       .  A
C728        C736   1.387       .  A
C729        C741   1.411       .  A
C729        C737   1.384       .  A
C730        C744   1.412       .  A
C730        C738   1.385       .  A
C731        C739   1.385       .  A
C731        C742   1.427       .  A
C732        C740   1.386       .  A
C732        C743   1.428       .  A
C733        H745   1.082       .  S
C734        H746   1.082       .  S
C735        H747   1.082       .  S
C736        H748   1.082       .  S
C737        C738   1.373       .  A
C737        H749   1.082       .  S
C738        H750   1.082       .  S
C739        C740   1.378       .  A
C739        H751   1.082       .  S
C740        H752   1.082       .  S
C741        N935   1.451       .  S
C743        N916   1.462       .  S
C744        N821   1.451       .  S
C755        C757   1.531       .  S
C755        C759   1.545       .  S
C755        C758   1.557       .  S
C755       C1154   1.502       .  S
C756        C760   1.555       .  S
C756        C762   1.550       .  S
C756        C761   1.556       .  S
C756       C1167   1.512       .  S
C757        C765   1.384       .  A
C757        C760   1.377       .  A
C758        C769   1.395       .  A
C758        C761   1.392       .  A
C759        C773   1.388       .  A
C759        C762   1.386       .  A
C760        C763   1.395       .  A
C761        C767   1.391       .  A
C762        C770   1.392       .  A
C763        N764   1.363       .  A
C763        H776   1.081       .  S
N764        C765   1.357       .  A
N764        C858   1.456       .  S
C765        H766   1.082       .  S
C767        N768   1.363       .  A
C767        H777   1.081       .  S
N768        C769   1.366       .  A
N768        C799   1.465       .  S
C769        H775   1.082       .  S
C770        N771   1.368       .  A
C770        H772   1.082       .  S
N771        C773   1.363       .  A
C773        H774   1.082       .  S
N778        C783   1.360       .  A
N778        C782   1.358       .  A
N778        H810   1.040       .  S
N779       C1998   1.360       .  A
N779        C787   1.362       .  A
N780        C785   1.360       .  A
N780        C784   1.362       .  A
N780        H811   1.041       .  S
N781       C2000   1.361       .  A
N781        C789   1.358       .  A
C782        C790   1.387       .  A
C782        C798   1.425       .  A
C783        C799   1.426       .  A
C783        C791   1.386       .  A
C784        C792   1.386       .  A
C784        C801   1.429       .  A
C785        C800   1.428       .  A
C785        C793   1.387       .  A
C786        C798   1.428       .  A
C786        C794   1.385       .  A
C786       N1991   1.360   1_455  A
C787        C801   1.430       .  A
C787        C795   1.385       .  A
C788        C796   1.384       .  A
C788        C799   1.425       .  A
C788       N1993   1.361   1_455  A
C789        C797   1.387       .  A
C789        C800   1.428       .  A
C790        C791   1.381       .  A
C790        H802   1.082       .  S
C791        H803   1.082       .  S
C792        C793   1.380       .  A
C792        H804   1.082       .  S
C793        H805   1.082       .  S
C794       C2007   1.378   1_455  A
C794        H806   1.082       .  S
C795       C2006   1.378       .  A
C795        H807   1.082       .  S
C796       C2009   1.377   1_455  A
C796        H808   1.082       .  S
C797       C2008   1.377       .  A
C797        H809   1.082       .  S
C798        N962   1.460       .  S
C800        N919   1.463       .  S
C801        N825   1.471       .  S
C812        C814   1.543       .  S
C812        C816   1.534       .  S
C812        C815   1.565       .  S
C812       C1144   1.499       .  S
C813        C817   1.549       .  S
C813        C819   1.549       .  S
C813        C818   1.561       .  S
C813       C1134   1.505       .  S
C814        C822   1.389       .  A
C814        C817   1.379       .  A
C815        C826   1.402       .  A
C815        C818   1.391       .  A
C816        C830   1.383       .  A
C816        C819   1.380       .  A
C817        C820   1.391       .  A
C818        C824   1.396       .  A
C819        C827   1.395       .  A
C820        N821   1.356       .  A
C820        H833   1.081       .  S
N821        C822   1.359       .  A
C822        H823   1.082       .  S
C824        N825   1.360       .  A
C824        H834   1.078       .  S
N825        C826   1.366       .  A
C826        H832   1.080       .  S
C827        N828   1.371       .  A
C827        H829   1.082       .  S
N828        C830   1.361       .  A
N828        C892   1.466       .  S
C830        H831   1.082       .  S
N835        C840   1.356       .  A
N835        C839   1.358       .  A
N835        H867   1.041       .  S
N836        C843   1.358       .  A
N836        C844   1.357   1_554  A
N837        C842   1.359       .  A
N837        C841   1.357       .  A
N837        H868   1.042       .  S
N838        C845   1.359   1_556  A
N838        C846   1.361       .  A
C839        C847   1.386       .  A
C839        C855   1.422       .  A
C840        C856   1.421       .  A
C840        C848   1.386       .  A
C841        C849   1.387       .  A
C841        C858   1.422       .  A
C842        C857   1.421       .  A
C842        C850   1.385       .  A
C843        C855   1.425       .  A
C843        C851   1.386       .  A
C844        C858   1.423       .  A
C844        C852   1.386       .  A
C845        C853   1.386       .  A
C845        C856   1.428       .  A
C846        C854   1.385       .  A
C846        C857   1.427       .  A
C847        C848   1.379       .  A
C847        H859   1.082       .  S
C848        H860   1.082       .  S
C849        C850   1.378       .  A
C849        H861   1.082       .  S
C850        H862   1.082       .  S
C851        C852   1.378   1_554  A
C851        H863   1.082       .  S
C852        H864   1.082       .  S
C853        C854   1.378   1_554  A
C853        H865   1.082       .  S
C854        H866   1.082       .  S
C855        N981   1.459       .  S
C857        N912   1.463       .  S
N869        C874   1.362       .  A
N869        C873   1.362       .  A
N869        H901   1.040       .  S
N870        C877   1.360       .  A
N870        C878   1.359   1_554  A
N871        C876   1.364       .  A
N871        C875   1.363       .  A
N871        H902   1.040       .  S
N872        C879   1.361       .  A
N872        C880   1.362   1_554  A
C873        C881   1.387       .  A
C873        C889   1.431       .  A
C874        C890   1.429       .  A
C874        C882   1.386       .  A
C875        C883   1.387       .  A
C875        C892   1.433       .  A
C876        C891   1.433       .  A
C876        C884   1.386       .  A
C877        C889   1.424       .  A
C877        C885   1.385       .  A
C878        C892   1.424       .  A
C878        C886   1.385       .  A
C879        C887   1.385       .  A
C879        C890   1.430       .  A
C880        C888   1.386       .  A
C880        C891   1.431       .  A
C881        C882   1.381       .  A
C881        H893   1.082       .  S
C882        H894   1.082       .  S
C883        C884   1.381       .  A
C883        H895   1.082       .  S
C884        H896   1.082       .  S
C885        C886   1.376   1_554  A
C885        H897   1.082       .  S
C886        H898   1.082       .  S
C887        C888   1.377   1_554  A
C887        H899   1.082       .  S
C888        H900   1.081       .  S
C889        N942   1.465       .  S
C891        N958   1.472       .  S
C903        C905   1.546       .  S
C903        C907   1.535       .  S
C903        C906   1.555       .  S
C903       C1124   1.483       .  S
C904        C908   1.554       .  S
C904        C910   1.553       .  S
C904        C909   1.538       .  S
C904       C1117   1.486       .  S
C905        C913   1.389       .  A
C905        C908   1.381       .  A
C906        C917   1.397       .  A
C906        C909   1.376       .  A
C907        C921   1.382       .  A
C907        C910   1.379       .  A
C908        C911   1.393       .  A
C909        C915   1.387       .  A
C910        C918   1.394       .  A
C911        N912   1.367       .  A
C911        H924   1.082       .  S
N912        C913   1.360       .  A
C913        H914   1.082       .  S
C915        N916   1.359       .  A
C915        H925   1.082       .  S
N916        C917   1.364       .  A
C917        H923   1.080       .  S
C918        N919   1.367       .  A
C918        H920   1.081       .  S
N919        C921   1.361       .  A
C921        H922   1.082       .  S
C926        C928   1.561       .  S
C926        C930   1.549       .  S
C926        C929   1.544       .  S
C926       C1094   1.513       .  S
C927        C931   1.549       .  S
C927        C933   1.535       .  S
C927        C932   1.552       .  S
C927       C1107   1.507       .  S
C928        C936   1.396       .  A
C928        C931   1.392       .  A
C929        C940   1.385       .  A
C929        C932   1.386       .  A
C930        C944   1.392       .  A
C930        C933   1.383       .  A
C931        C934   1.390       .  A
C932        C938   1.392       .  A
C933        C941   1.383       .  A
C934        N935   1.357       .  A
C934        H947   1.081       .  S
N935        C936   1.353       .  A
C936        H937   1.077       .  S
C938        N939   1.363       .  A
C938        H948   1.081       .  S
N939        C940   1.359       .  A
C940        H946   1.082       .  S
C941        N942   1.362       .  A
C941        H943   1.082       .  S
N942        C944   1.370       .  A
C944        H945   1.082       .  S
C949        C951   1.558       .  S
C949        C953   1.561       .  S
C949        C952   1.542       .  S
C949       C1074   1.509       .  S
C950        C954   1.562       .  S
C950        C956   1.545       .  S
C950        C955   1.549       .  S
C950       C1084   1.509       .  S
C951        C959   1.397       .  A
C951        C954   1.387       .  A
C952        C963   1.388       .  A
C952        C955   1.382       .  A
C953        C967   1.400       .  A
C953        C956   1.385       .  A
C954        C957   1.399       .  A
C955        C961   1.392       .  A
C956        C964   1.389       .  A
C957        N958   1.366       .  A
C957        H970   1.080       .  S
N958        C959   1.365       .  A
C959        H960   1.081       .  S
C961        N962   1.363       .  A
C961        H971   1.081       .  S
N962        C963   1.363       .  A
C963        H969   1.082       .  S
C964        N965   1.364       .  A
C964        H966   1.082       .  S
N965        C967   1.368       .  A
C967        H968   1.081       .  S
C972        C974   1.542       .  S
C972        C976   1.548       .  S
C972        C975   1.555       .  S
C972       C1064   1.496       .  S
C973        C977   1.552       .  S
C973        C979   1.553       .  S
C973        C978   1.536       .  S
C973       C1057   1.494       .  S
C974        C982   1.386       .  A
C974        C977   1.384       .  A
C975        C986   1.394       .  A
C975        C978   1.384       .  A
C976        C990   1.392       .  A
C976        C979   1.378       .  A
C977        C980   1.394       .  A
C978        C984   1.383       .  A
C979        C987   1.394       .  A
C980        N981   1.363       .  A
C980        H993   1.081       .  S
N981        C982   1.362       .  A
C982        H983   1.082       .  S
C984        N985   1.360       .  A
C984        H994   1.082       .  S
N985        C986   1.362       .  A
C986        H992   1.079       .  S
C987        N988   1.365       .  A
C987        H989   1.082       .  S
N988        C990   1.362       .  A
C990        H991   1.082       .  S
O995       C1003   1.308       .  A
O995      Co2227   2.117   1_455  S
O996       C1004   1.276       .  A
O996      Co1016   2.029       .  S
O997       C1005   1.264       .  A
O997      Co1017   1.951   1_556  S
O998       C1006   1.254       .  A
O998      Co1018   1.941   1_554  S
O999       C1005   1.274       .  A
O999      Co2228   2.011   1_455  S
O1000      C1006   1.285       .  A
O1000     Co1015   2.019       .  S
O1001      C1004   1.253       .  A
O1001     Co1018   1.921       .  S
O1002      C1003   1.263       .  A
O1002     Co1017   1.868       .  S
C1003      C1207   1.441       .  S
C1004      C1137   1.437       .  S
C1005      C1087   1.442       .  S
C1006      C1097   1.440       .  S
O1007      C1020   1.246       .  A
O1008      C1021   1.246       .  A
O1008     Co1622   1.948   1_455  S
O1009      C1022   1.286       .  A
O1010      C1023   1.260       .  A
O1011      C1023   1.244       .  A
O1012      C1022   1.260       .  A
O1012     Co1621   1.881   1_455  S
O1013      C1020   1.255       .  A
O1014      C1021   1.260       .  A
Co1015     O2207   2.117       .  S
Co1015     O1618   1.881       .  S
Co1015     O1019   1.954   1_554  S
Co1016     O2211   2.011       .  S
Co1016     O1614   1.948       .  S
Co1016     O1019   1.981       .  S
Co1017     O2231   1.992   1_454  S
Co1018     O1019   2.025       .  S
O1019     Co2229   1.992   1_556  S
C1020      C1187   1.457       .  S
C1021      C1157   1.449       .  S
C1022      C1054   1.445       .  S
C1023      C1127   1.412       .  S
O1024      C1032   1.245       .  A
O1024     Co1044   1.949       .  S
O1025      C1033   1.263       .  A
O1025     Co1045   1.995       .  S
O1026      C1034   1.251       .  A
O1026     Co1046   1.989       .  S
O1027      C1035   1.249       .  A
O1027     Co1047   1.931       .  S
O1028      C1034   1.237       .  A
O1028     Co1045   1.934       .  S
O1029      C1035   1.267       .  A
O1029     Co1044   2.015       .  S
O1030      C1033   1.253       .  A
O1030     Co1047   1.944       .  S
O1031      C1032   1.249       .  A
O1031     Co1046   1.969       .  S
C1032      C1104   1.443       .  S
C1033      C1114   1.435       .  S
C1034      C1177   1.457       .  S
C1035      C1147   1.451       .  S
O1036      C1049   1.249       .  A
O1036     Co1044   1.966       .  S
O1037      C1050   1.268       .  A
O1037     Co1045   1.889       .  S
O1038      C1051   1.283       .  A
O1038     Co1046   2.014       .  S
O1039      C1052   1.266       .  A
O1039     Co1047   2.003       .  S
O1040      C1052   1.253       .  A
O1040     Co1045   1.975       .  S
O1041      C1051   1.274       .  A
O1041     Co1044   1.899       .  S
O1042      C1049   1.266       .  A
O1042     Co1047   2.017       .  S
O1043      C1050   1.284       .  A
O1043     Co1046   2.022       .  S
Co1044     O1048   1.936       .  S
Co1045     O1048   1.914       .  S
Co1046     O1048   2.214       .  S
Co1047     O1048   2.042       .  S
C1049      C1077   1.461       .  S
C1050      C1067   1.447       .  S
C1051      C1197   1.444       .  S
C1052      C1164   1.457       .  S
C1053      C1054   1.400       .  A
C1053      C1058   1.383       .  A
C1053      H1059   1.084       .  S
C1054      C1055   1.397       .  A
C1055      C1056   1.382       .  A
C1055      H1060   1.083       .  S
C1056      C1057   1.405       .  A
C1056      H1061   1.082       .  S
C1057      C1058   1.401       .  A
C1058      H1062   1.077       .  S
C1063      C1064   1.398       .  A
C1063      C1068   1.382       .  A
C1063      H1069   1.074       .  S
C1064      C1065   1.406       .  A
C1065      C1066   1.384       .  A
C1065      H1070   1.083       .  S
C1066      C1067   1.397       .  A
C1066      H1071   1.083       .  S
C1067      C1068   1.402       .  A
C1068      H1072   1.083       .  S
C1073      C1074   1.409       .  A
C1073      C1078   1.391       .  A
C1073      H1079   1.080       .  S
C1074      C1075   1.403       .  A
C1075      C1076   1.390       .  A
C1075      H1080   1.079       .  S
C1076      C1077   1.404       .  A
C1076      H1081   1.083       .  S
C1077      C1078   1.397       .  A
C1078      H1082   1.083       .  S
C1083      C1084   1.411       .  A
C1083      C1088   1.393       .  A
C1083      H1089   1.081       .  S
C1084      C1085   1.404       .  A
C1085      C1086   1.386       .  A
C1085      H1090   1.077       .  S
C1086      C1087   1.395       .  A
C1086      H1091   1.084       .  S
C1087      C1088   1.394       .  A
C1088      H1092   1.082       .  S
C1093      C1094   1.397       .  A
C1093      C1098   1.379       .  A
C1093      H1099   1.070       .  S
C1094      C1095   1.409       .  A
C1095      C1096   1.397       .  A
C1095      H1100   1.083       .  S
C1096      C1097   1.401       .  A
C1096      H1101   1.083       .  S
C1097      C1098   1.395       .  A
C1098      H1102   1.084       .  S
C1103      C1104   1.396       .  A
C1103      C1108   1.391       .  A
C1103      H1109   1.084       .  S
C1104      C1105   1.394       .  A
C1105      C1106   1.386       .  A
C1105      H1110   1.084       .  S
C1106      C1107   1.406       .  A
C1106      H1111   1.081       .  S
C1107      C1108   1.407       .  A
C1108      H1112   1.079       .  S
C1113      C1114   1.394       .  A
C1113      C1118   1.383       .  A
C1113      H1119   1.082       .  S
C1114      C1115   1.396       .  A
C1115      C1116   1.380       .  A
C1115      H1120   1.084       .  S
C1116      C1117   1.404       .  A
C1116      H1121   1.078       .  S
C1117      C1118   1.407       .  A
C1118      H1122   1.081       .  S
C1123      C1124   1.408       .  A
C1123      C1128   1.382       .  A
C1123      H1129   1.083       .  S
C1124      C1125   1.398       .  A
C1125      C1126   1.374       .  A
C1125      H1130   1.075       .  S
C1126      C1127   1.391       .  A
C1126      H1131   1.084       .  S
C1127      C1128   1.390       .  A
C1128      H1132   1.083       .  S
C1133      C1134   1.398       .  A
C1133      C1138   1.383       .  A
C1133      H1139   1.077       .  S
C1134      C1135   1.406       .  A
C1135      C1136   1.387       .  A
C1135      H1140   1.082       .  S
C1136      C1137   1.396       .  A
C1136      H1141   1.084       .  S
C1137      C1138   1.401       .  A
C1138      H1142   1.084       .  S
C1143      C1144   1.393       .  A
C1143      C1148   1.379       .  A
C1143      H1149   1.077       .  S
C1144      C1145   1.412       .  A
C1145      C1146   1.391       .  A
C1145      H1150   1.082       .  S
C1146      C1147   1.394       .  A
C1146      H1151   1.083       .  S
C1147      C1148   1.406       .  A
C1148      H1152   1.084       .  S
C1153      C1154   1.404       .  A
C1153      C1158   1.386       .  A
C1153      H1159   1.080       .  S
C1154      C1155   1.412       .  A
C1155      C1156   1.391       .  A
C1155      H1160   1.080       .  S
C1156      C1157   1.396       .  A
C1156      H1161   1.084       .  S
C1157      C1158   1.400       .  A
C1158      H1162   1.084       .  S
C1163      C1164   1.398       .  A
C1163      C1168   1.384       .  A
C1163      H1169   1.082       .  S
C1164      C1165   1.401       .  A
C1165      C1166   1.396       .  A
C1165      H1170   1.083       .  S
C1166      C1167   1.407       .  A
C1166      H1171   1.080       .  S
C1167      C1168   1.403       .  A
C1168      H1172   1.080       .  S
C1173      C1174   1.408       .  A
C1173      C1178   1.390       .  A
C1173      H1179   1.080       .  S
C1174      C1175   1.401       .  A
C1175      C1176   1.385       .  A
C1175      H1180   1.080       .  S
C1176      C1177   1.403       .  A
C1176      H1181   1.084       .  S
C1177      C1178   1.398       .  A
C1178      H1182   1.083       .  S
C1183      C1184   1.404       .  A
C1183      C1188   1.389       .  A
C1183      H1189   1.081       .  S
C1184      C1185   1.401       .  A
C1185      C1186   1.388       .  A
C1185      H1190   1.081       .  S
C1186      C1187   1.403       .  A
C1186      H1191   1.083       .  S
C1187      C1188   1.400       .  A
C1188      H1192   1.083       .  S
C1193      C1194   1.407       .  A
C1193      C1198   1.385       .  A
C1193      H1199   1.083       .  S
C1194      C1195   1.395       .  A
C1195      C1196   1.380       .  A
C1195      H1200   1.075       .  S
C1196      C1197   1.403       .  A
C1196      H1201   1.083       .  S
C1197      C1198   1.395       .  A
C1198      H1202   1.083       .  S
C1203      C1204   1.406       .  A
C1203      C1208   1.389       .  A
C1203      H1209   1.080       .  S
C1204      C1205   1.404       .  A
C1205      C1206   1.383       .  A
C1205      H1210   1.080       .  S
C1206      C1207   1.396       .  A
C1206      H1211   1.084       .  S
C1207      C1208   1.396       .  A
C1208      H1212   1.084       .  S
C1213      C1215   1.557       .  S
C1213      C1217   1.558       .  S
C1213      C1216   1.539       .  S
C1213      C1810   1.499       .  S
C1214      C1218   1.540       .  S
C1214      C1220   1.546       .  S
C1214      C1219   1.556       .  S
C1214      C1800   1.494       .  S
C1215      C1223   1.395       .  A
C1215      C1218   1.380       .  A
C1216      C1227   1.385       .  A
C1216      C1219   1.385       .  A
C1217      C1231   1.397       .  A
C1217      C1220   1.381       .  A
C1218      C1221   1.390       .  A
C1219      C1225   1.397       .  A
C1220      C1228   1.388       .  A
C1221      N1222   1.364       .  A
C1221      H1234   1.082       .  S
N1222      C1223   1.365       .  A
N1222      C1496   1.466       .  S
C1223      H1224   1.081       .  S
C1225      N1226   1.363       .  A
C1225      H1235   1.079       .  S
N1226      C1227   1.361       .  A
N1226      C1256   1.461       .  S
C1227      H1233   1.082       .  S
C1228      N1229   1.358       .  A
C1228      H1230   1.081       .  S
N1229      C1231   1.368       .  A
N1229      C1313   1.465       .  S
C1231      H1232   1.081       .  S
N1236      C1241   1.358       .  A
N1236      H1268   1.040       .  S
N1237      C1244   1.359       .  A
N1237      C1245   1.358       .  A
N1238      C1243   1.359       .  A
N1238      H1269   1.041       .  S
N1239      C1246   1.358       .  A
N1239      C1247   1.359       .  A
C1240      C1248   1.385       .  A
C1240      C1256   1.422       .  A
C1241      C1257   1.424       .  A
C1241      C1249   1.387       .  A
C1242      C1250   1.387       .  A
C1242      C1259   1.424       .  A
C1243      C1258   1.423       .  A
C1243      C1251   1.385       .  A
C1244      C1256   1.425       .  A
C1244      C1252   1.385       .  A
C1245      C1259   1.425       .  A
C1245      C1253   1.386       .  A
C1246      C1254   1.386       .  A
C1246      C1257   1.423       .  A
C1247      C1255   1.385       .  A
C1247      C1258   1.424       .  A
C1248      H1260   1.082       .  S
C1249      H1261   1.082       .  S
C1250      H1262   1.082       .  S
C1251      H1263   1.082       .  S
C1252      C1253   1.377       .  A
C1252      H1264   1.082       .  S
C1253      H1265   1.082       .  S
C1254      C1255   1.376       .  A
C1254      H1266   1.082       .  S
C1255      H1267   1.082       .  S
C1257      N1545   1.457       .  S
C1258      N1286   1.461       .  S
C1259      N1591   1.459       .  S
C1270      C1272   1.550       .  S
C1270      C1274   1.535       .  S
C1270      C1273   1.557       .  S
C1270      C1780   1.504       .  S
C1271      C1275   1.553       .  S
C1271      C1277   1.541       .  S
C1271      C1276   1.556       .  S
C1271      C1790   1.508       .  S
C1272      C1280   1.392       .  A
C1272      C1275   1.385       .  A
C1273      C1284   1.396       .  A
C1273      C1276   1.389       .  A
C1274      C1288   1.383       .  A
C1274      C1277   1.380       .  A
C1275      C1278   1.392       .  A
C1276      C1282   1.392       .  A
C1277      C1285   1.389       .  A
C1278      N1279   1.358       .  A
C1278      H1291   1.081       .  S
N1279      C1280   1.361       .  A
N1279      C1462   1.458       .  S
C1280      H1281   1.081       .  S
C1282      N1283   1.360       .  A
C1282      H1292   1.080       .  S
N1283      C1284   1.364       .  A
N1283      C1348   1.464       .  S
C1284      H1290   1.081       .  S
C1285      N1286   1.368       .  A
C1285      H1287   1.082       .  S
N1286      C1288   1.363       .  A
C1288      H1289   1.082       .  S
N1293      C1904   1.360   1_545  A
N1293      C1297   1.359       .  A
N1293      H1325   1.041       .  S
N1294      C1301   1.361       .  A
N1294      C1302   1.362       .  A
N1295      C1906   1.362   1_545  A
N1295      C1299   1.363       .  A
N1295      H1326   1.040       .  S
N1296      C1303   1.360       .  A
N1296      C1304   1.359       .  A
C1297      C1305   1.387       .  A
C1297      C1313   1.425       .  A
C1298      C1314   1.424       .  A
C1298      C1306   1.385       .  A
C1298      N1899   1.360       .  A
C1299      C1307   1.386       .  A
C1299      C1316   1.431       .  A
C1300      C1315   1.432       .  A
C1300      C1308   1.387       .  A
C1300      N1901   1.362       .  A
C1301      C1313   1.433       .  A
C1301      C1309   1.387       .  A
C1302      C1316   1.431       .  A
C1302      C1310   1.385       .  A
C1303      C1311   1.385       .  A
C1303      C1314   1.426       .  A
C1304      C1312   1.385       .  A
C1304      C1315   1.426       .  A
C1305      C1912   1.377   1_545  A
C1305      H1317   1.082       .  S
C1306      C1911   1.377       .  A
C1306      H1318   1.082       .  S
C1307      C1914   1.379   1_545  A
C1307      H1319   1.082       .  S
C1308      C1913   1.379       .  A
C1308      H1320   1.082       .  S
C1309      C1310   1.380       .  A
C1309      H1321   1.082       .  S
C1310      H1322   1.082       .  S
C1311      C1312   1.377       .  A
C1311      H1323   1.082       .  S
C1312      H1324   1.082       .  S
C1314      N1594   1.465       .  S
C1315      N1377   1.465       .  S
C1316      N1571   1.470       .  S
N1327      C1938   1.360   1_545  A
N1327      C1331   1.360       .  A
N1327      H1359   1.040       .  S
N1328      C1335   1.352       .  A
N1328      C1336   1.353       .  A
N1329      C1940   1.357   1_545  A
N1329      C1333   1.359       .  A
N1329      H1360   1.041       .  S
N1330      C1337   1.360       .  A
N1330      C1338   1.360       .  A
C1331      C1339   1.385       .  A
C1331      C1347   1.425       .  A
C1332      C1348   1.427       .  A
C1332      C1340   1.387       .  A
C1332      N1933   1.360       .  A
C1333      C1341   1.385       .  A
C1333      C1350   1.422       .  A
C1334      C1349   1.424       .  A
C1334      C1342   1.387       .  A
C1334      N1935   1.357       .  A
C1335      C1347   1.411       .  A
C1335      C1343   1.384       .  A
C1336      C1350   1.412       .  A
C1336      C1344   1.385       .  A
C1337      C1345   1.385       .  A
C1337      C1348   1.427       .  A
C1338      C1346   1.386       .  A
C1338      C1349   1.428       .  A
C1339      C1946   1.381   1_545  A
C1339      H1351   1.082       .  S
C1340      C1945   1.381       .  A
C1340      H1352   1.082       .  S
C1341      C1948   1.380   1_545  A
C1341      H1353   1.082       .  S
C1342      C1947   1.380       .  A
C1342      H1354   1.082       .  S
C1343      C1344   1.373       .  A
C1343      H1355   1.082       .  S
C1344      H1356   1.082       .  S
C1345      C1346   1.378       .  A
C1345      H1357   1.082       .  S
C1346      H1358   1.082       .  S
C1347      N1541   1.451       .  S
C1349      N1522   1.462       .  S
C1350      N1427   1.451       .  S
C1361      C1363   1.531       .  S
C1361      C1365   1.545       .  S
C1361      C1364   1.557       .  S
C1361      C1760   1.502       .  S
C1362      C1366   1.555       .  S
C1362      C1368   1.550       .  S
C1362      C1367   1.556       .  S
C1362      C1773   1.512       .  S
C1363      C1371   1.384       .  A
C1363      C1366   1.377       .  A
C1364      C1375   1.395       .  A
C1364      C1367   1.392       .  A
C1365      C1379   1.388       .  A
C1365      C1368   1.386       .  A
C1366      C1369   1.395       .  A
C1367      C1373   1.391       .  A
C1368      C1376   1.392       .  A
C1369      N1370   1.363       .  A
C1369      H1382   1.081       .  S
N1370      C1371   1.357       .  A
N1370      C1464   1.456       .  S
C1371      H1372   1.082       .  S
C1373      N1374   1.363       .  A
C1373      H1383   1.081       .  S
N1374      C1375   1.366       .  A
N1374      C1405   1.465       .  S
C1375      H1381   1.082       .  S
C1376      N1377   1.368       .  A
C1376      H1378   1.082       .  S
N1377      C1379   1.363       .  A
C1379      H1380   1.082       .  S
N1384      C1389   1.360       .  A
N1384      C1388   1.358       .  A
N1384      H1416   1.040       .  S
N1385      C1393   1.362       .  A
N1386      C1391   1.360       .  A
N1386      C1390   1.362       .  A
N1386      H1417   1.041       .  S
N1387      C1395   1.358       .  A
C1388      C1396   1.387       .  A
C1388      C1404   1.425       .  A
C1389      C1405   1.426       .  A
C1389      C1397   1.386       .  A
C1390      C1398   1.386       .  A
C1390      C1407   1.429       .  A
C1391      C1406   1.428       .  A
C1391      C1399   1.387       .  A
C1392      C1404   1.428       .  A
C1392      C1400   1.385       .  A
C1393      C1407   1.430       .  A
C1393      C1401   1.385       .  A
C1394      C1402   1.384       .  A
C1394      C1405   1.425       .  A
C1395      C1403   1.387       .  A
C1395      C1406   1.428       .  A
C1396      C1397   1.381       .  A
C1396      H1408   1.082       .  S
C1397      H1409   1.082       .  S
C1398      C1399   1.380       .  A
C1398      H1410   1.082       .  S
C1399      H1411   1.082       .  S
C1400      H1412   1.082       .  S
C1401      H1413   1.082       .  S
C1402      H1414   1.082       .  S
C1403      H1415   1.082       .  S
C1404      N1568   1.460       .  S
C1406      N1525   1.463       .  S
C1407      N1431   1.471       .  S
C1418      C1420   1.543       .  S
C1418      C1422   1.534       .  S
C1418      C1421   1.565       .  S
C1418      C1750   1.499       .  S
C1419      C1423   1.549       .  S
C1419      C1425   1.549       .  S
C1419      C1424   1.561       .  S
C1419      C1740   1.505       .  S
C1420      C1428   1.389       .  A
C1420      C1423   1.379       .  A
C1421      C1432   1.402       .  A
C1421      C1424   1.391       .  A
C1422      C1436   1.383       .  A
C1422      C1425   1.380       .  A
C1423      C1426   1.391       .  A
C1424      C1430   1.396       .  A
C1425      C1433   1.395       .  A
C1426      N1427   1.356       .  A
C1426      H1439   1.081       .  S
N1427      C1428   1.359       .  A
C1428      H1429   1.082       .  S
C1430      N1431   1.360       .  A
C1430      H1440   1.078       .  S
N1431      C1432   1.366       .  A
C1432      H1438   1.080       .  S
C1433      N1434   1.371       .  A
C1433      H1435   1.082       .  S
N1434      C1436   1.361       .  A
N1434      C1498   1.466       .  S
C1436      H1437   1.082       .  S
N1441      C1446   1.356       .  A
N1441      C1445   1.358       .  A
N1441      H1473   1.041       .  S
N1442      C1449   1.358       .  A
N1442      C1450   1.357   1_554  A
N1443      C1448   1.359       .  A
N1443      C1447   1.357       .  A
N1443      H1474   1.042       .  S
N1444      C1451   1.359   1_556  A
N1444      C1452   1.361       .  A
C1445      C1453   1.386       .  A
C1445      C1461   1.422       .  A
C1446      C1462   1.421       .  A
C1446      C1454   1.386       .  A
C1447      C1455   1.387       .  A
C1447      C1464   1.422       .  A
C1448      C1463   1.421       .  A
C1448      C1456   1.385       .  A
C1449      C1461   1.425       .  A
C1449      C1457   1.386       .  A
C1450      C1464   1.423       .  A
C1450      C1458   1.386       .  A
C1451      C1459   1.386       .  A
C1451      C1462   1.428       .  A
C1452      C1460   1.385       .  A
C1452      C1463   1.427       .  A
C1453      C1454   1.379       .  A
C1453      H1465   1.082       .  S
C1454      H1466   1.082       .  S
C1455      C1456   1.378       .  A
C1455      H1467   1.082       .  S
C1456      H1468   1.082       .  S
C1457      C1458   1.378   1_554  A
C1457      H1469   1.082       .  S
C1458      H1470   1.082       .  S
C1459      C1460   1.378   1_554  A
C1459      H1471   1.082       .  S
C1460      H1472   1.082       .  S
C1461      N1587   1.459       .  S
C1463      N1518   1.463       .  S
N1475      C1480   1.362       .  A
N1475      C1479   1.362       .  A
N1475      H1507   1.040       .  S
N1476      C1483   1.360       .  A
N1476      C1484   1.359   1_554  A
N1477      C1482   1.364       .  A
N1477      C1481   1.363       .  A
N1477      H1508   1.040       .  S
N1478      C1485   1.361       .  A
N1478      C1486   1.362   1_554  A
C1479      C1487   1.387       .  A
C1479      C1495   1.431       .  A
C1480      C1496   1.429       .  A
C1480      C1488   1.386       .  A
C1481      C1489   1.387       .  A
C1481      C1498   1.433       .  A
C1482      C1497   1.433       .  A
C1482      C1490   1.386       .  A
C1483      C1495   1.424       .  A
C1483      C1491   1.385       .  A
C1484      C1498   1.424       .  A
C1484      C1492   1.385       .  A
C1485      C1493   1.385       .  A
C1485      C1496   1.430       .  A
C1486      C1494   1.386       .  A
C1486      C1497   1.431       .  A
C1487      C1488   1.381       .  A
C1487      H1499   1.082       .  S
C1488      H1500   1.082       .  S
C1489      C1490   1.381       .  A
C1489      H1501   1.082       .  S
C1490      H1502   1.082       .  S
C1491      C1492   1.376   1_554  A
C1491      H1503   1.082       .  S
C1492      H1504   1.082       .  S
C1493      C1494   1.377   1_554  A
C1493      H1505   1.082       .  S
C1494      H1506   1.081       .  S
C1495      N1548   1.465       .  S
C1497      N1564   1.472       .  S
C1509      C1511   1.546       .  S
C1509      C1513   1.535       .  S
C1509      C1512   1.555       .  S
C1509      C1730   1.483       .  S
C1510      C1514   1.554       .  S
C1510      C1516   1.553       .  S
C1510      C1515   1.538       .  S
C1510      C1723   1.486       .  S
C1511      C1519   1.389       .  A
C1511      C1514   1.381       .  A
C1512      C1523   1.397       .  A
C1512      C1515   1.376       .  A
C1513      C1527   1.382       .  A
C1513      C1516   1.379       .  A
C1514      C1517   1.393       .  A
C1515      C1521   1.387       .  A
C1516      C1524   1.394       .  A
C1517      N1518   1.367       .  A
C1517      H1530   1.082       .  S
N1518      C1519   1.360       .  A
C1519      H1520   1.082       .  S
C1521      N1522   1.359       .  A
C1521      H1531   1.082       .  S
N1522      C1523   1.364       .  A
C1523      H1529   1.080       .  S
C1524      N1525   1.367       .  A
C1524      H1526   1.081       .  S
N1525      C1527   1.361       .  A
C1527      H1528   1.082       .  S
C1532      C1534   1.561       .  S
C1532      C1536   1.549       .  S
C1532      C1535   1.544       .  S
C1532      C1700   1.513       .  S
C1533      C1537   1.549       .  S
C1533      C1539   1.535       .  S
C1533      C1538   1.552       .  S
C1533      C1713   1.507       .  S
C1534      C1542   1.396       .  A
C1534      C1537   1.392       .  A
C1535      C1546   1.385       .  A
C1535      C1538   1.386       .  A
C1536      C1550   1.392       .  A
C1536      C1539   1.383       .  A
C1537      C1540   1.390       .  A
C1538      C1544   1.392       .  A
C1539      C1547   1.383       .  A
C1540      N1541   1.357       .  A
C1540      H1553   1.081       .  S
N1541      C1542   1.353       .  A
C1542      H1543   1.077       .  S
C1544      N1545   1.363       .  A
C1544      H1554   1.081       .  S
N1545      C1546   1.359       .  A
C1546      H1552   1.082       .  S
C1547      N1548   1.362       .  A
C1547      H1549   1.082       .  S
N1548      C1550   1.370       .  A
C1550      H1551   1.082       .  S
C1555      C1557   1.558       .  S
C1555      C1559   1.561       .  S
C1555      C1558   1.542       .  S
C1555      C1680   1.509       .  S
C1556      C1560   1.562       .  S
C1556      C1562   1.545       .  S
C1556      C1561   1.549       .  S
C1556      C1690   1.509       .  S
C1557      C1565   1.397       .  A
C1557      C1560   1.387       .  A
C1558      C1569   1.388       .  A
C1558      C1561   1.382       .  A
C1559      C1573   1.400       .  A
C1559      C1562   1.386       .  A
C1560      C1563   1.399       .  A
C1561      C1567   1.392       .  A
C1562      C1570   1.389       .  A
C1563      N1564   1.366       .  A
C1563      H1576   1.080       .  S
N1564      C1565   1.365       .  A
C1565      H1566   1.081       .  S
C1567      N1568   1.363       .  A
C1567      H1577   1.081       .  S
N1568      C1569   1.363       .  A
C1569      H1575   1.082       .  S
C1570      N1571   1.364       .  A
C1570      H1572   1.082       .  S
N1571      C1573   1.368       .  A
C1573      H1574   1.081       .  S
C1578      C1580   1.542       .  S
C1578      C1582   1.548       .  S
C1578      C1581   1.555       .  S
C1578      C1670   1.496       .  S
C1579      C1583   1.552       .  S
C1579      C1585   1.553       .  S
C1579      C1584   1.536       .  S
C1579      C1663   1.494       .  S
C1580      C1588   1.386       .  A
C1580      C1583   1.384       .  A
C1581      C1592   1.394       .  A
C1581      C1584   1.384       .  A
C1582      C1596   1.392       .  A
C1582      C1585   1.378       .  A
C1583      C1586   1.394       .  A
C1584      C1590   1.383       .  A
C1585      C1593   1.394       .  A
C1586      N1587   1.363       .  A
C1586      H1599   1.081       .  S
N1587      C1588   1.362       .  A
C1588      H1589   1.082       .  S
C1590      N1591   1.360       .  A
C1590      H1600   1.082       .  S
N1591      C1592   1.363       .  A
C1592      H1598   1.079       .  S
C1593      N1594   1.365       .  A
C1593      H1595   1.082       .  S
N1594      C1596   1.362       .  A
C1596      H1597   1.082       .  S
O1601      C1609   1.308       .  A
O1602      C1610   1.276       .  A
O1602     Co1622   2.029   1_545  S
O1603      C1611   1.264       .  A
O1603     Co1623   1.951   1_556  S
O1604      C1612   1.254       .  A
O1604     Co1624   1.941   1_554  S
O1605      C1611   1.274       .  A
O1606      C1612   1.285       .  A
O1606     Co1621   2.019   1_545  S
O1607      C1610   1.253       .  A
O1607     Co1624   1.921       .  S
O1608      C1609   1.263       .  A
O1608     Co1623   1.868       .  S
C1609      C1813   1.441       .  S
C1610      C1743   1.437       .  S
C1611      C1693   1.442       .  S
C1612      C1703   1.440       .  S
O1613      C1626   1.246       .  A
O1613     Co2227   1.945       .  S
O1614      C1627   1.246       .  A
O1615      C1628   1.286       .  A
O1615     Co2229   2.083       .  S
O1616      C1629   1.260       .  A
O1616     Co2230   1.980       .  S
O1617      C1629   1.244       .  A
O1617     Co2228   1.932       .  S
O1618      C1628   1.260       .  A
O1619      C1626   1.255       .  A
O1619     Co2230   1.979   1_554  S
O1620      C1627   1.260       .  A
O1620     Co2229   2.014   1_556  S
Co1621     O2219   1.945       .  S
Co1621     O1625   1.954   1_564  S
Co1622     O2223   1.932       .  S
Co1622     O1625   1.981   1_565  S
Co1623     O2221   2.083   1_545  S
Co1623     O2226   2.014   1_544  S
Co1624     O2222   1.980   1_545  S
Co1624     O2225   1.979   1_546  S
Co1624     O1625   2.025       .  S
C1626      C1793   1.457       .  S
C1627      C1763   1.449       .  S
C1628      C1660   1.445       .  S
C1629      C1733   1.412       .  S
O1630      C1638   1.245       .  A
O1630     Co1650   1.949       .  S
O1631      C1639   1.263       .  A
O1631     Co1651   1.995       .  S
O1632      C1640   1.251       .  A
O1632     Co1652   1.989       .  S
O1633      C1641   1.249       .  A
O1633     Co1653   1.931       .  S
O1634      C1640   1.237       .  A
O1634     Co1651   1.934       .  S
O1635      C1641   1.267       .  A
O1635     Co1650   2.015       .  S
O1636      C1639   1.253       .  A
O1636     Co1653   1.944       .  S
O1637      C1638   1.249       .  A
O1637     Co1652   1.969       .  S
C1638      C1710   1.443       .  S
C1639      C1720   1.435       .  S
C1640      C1783   1.457       .  S
C1641      C1753   1.451       .  S
O1642      C1655   1.249       .  A
O1642     Co1650   1.966       .  S
O1643      C1656   1.268       .  A
O1643     Co1651   1.889       .  S
O1644      C1657   1.283       .  A
O1644     Co1652   2.014       .  S
O1645      C1658   1.266       .  A
O1645     Co1653   2.003       .  S
O1646      C1658   1.253       .  A
O1646     Co1651   1.975       .  S
O1647      C1657   1.274       .  A
O1647     Co1650   1.899       .  S
O1648      C1655   1.266       .  A
O1648     Co1653   2.017       .  S
O1649      C1656   1.284       .  A
O1649     Co1652   2.022       .  S
Co1650     O1654   1.936       .  S
Co1651     O1654   1.914       .  S
Co1652     O1654   2.214       .  S
Co1653     O1654   2.042       .  S
C1655      C1683   1.461       .  S
C1656      C1673   1.447       .  S
C1657      C1803   1.444       .  S
C1658      C1770   1.457       .  S
C1659      C1660   1.400       .  A
C1659      C1664   1.383       .  A
C1659      H1665   1.084       .  S
C1660      C1661   1.397       .  A
C1661      C1662   1.382       .  A
C1661      H1666   1.083       .  S
C1662      C1663   1.405       .  A
C1662      H1667   1.082       .  S
C1663      C1664   1.401       .  A
C1664      H1668   1.077       .  S
C1669      C1670   1.398       .  A
C1669      C1674   1.383       .  A
C1669      H1675   1.074       .  S
C1670      C1671   1.406       .  A
C1671      C1672   1.384       .  A
C1671      H1676   1.083       .  S
C1672      C1673   1.397       .  A
C1672      H1677   1.083       .  S
C1673      C1674   1.402       .  A
C1674      H1678   1.083       .  S
C1679      C1680   1.409       .  A
C1679      C1684   1.391       .  A
C1679      H1685   1.080       .  S
C1680      C1681   1.403       .  A
C1681      C1682   1.390       .  A
C1681      H1686   1.079       .  S
C1682      C1683   1.404       .  A
C1682      H1687   1.083       .  S
C1683      C1684   1.397       .  A
C1684      H1688   1.083       .  S
C1689      C1690   1.411       .  A
C1689      C1694   1.393       .  A
C1689      H1695   1.081       .  S
C1690      C1691   1.404       .  A
C1691      C1692   1.386       .  A
C1691      H1696   1.077       .  S
C1692      C1693   1.395       .  A
C1692      H1697   1.084       .  S
C1693      C1694   1.394       .  A
C1694      H1698   1.082       .  S
C1699      C1700   1.397       .  A
C1699      C1704   1.379       .  A
C1699      H1705   1.070       .  S
C1700      C1701   1.409       .  A
C1701      C1702   1.397       .  A
C1701      H1706   1.083       .  S
C1702      C1703   1.401       .  A
C1702      H1707   1.083       .  S
C1703      C1704   1.395       .  A
C1704      H1708   1.084       .  S
C1709      C1710   1.396       .  A
C1709      C1714   1.391       .  A
C1709      H1715   1.084       .  S
C1710      C1711   1.394       .  A
C1711      C1712   1.386       .  A
C1711      H1716   1.084       .  S
C1712      C1713   1.406       .  A
C1712      H1717   1.081       .  S
C1713      C1714   1.407       .  A
C1714      H1718   1.079       .  S
C1719      C1720   1.394       .  A
C1719      C1724   1.383       .  A
C1719      H1725   1.082       .  S
C1720      C1721   1.396       .  A
C1721      C1722   1.380       .  A
C1721      H1726   1.084       .  S
C1722      C1723   1.404       .  A
C1722      H1727   1.078       .  S
C1723      C1724   1.407       .  A
C1724      H1728   1.081       .  S
C1729      C1730   1.408       .  A
C1729      C1734   1.382       .  A
C1729      H1735   1.083       .  S
C1730      C1731   1.398       .  A
C1731      C1732   1.374       .  A
C1731      H1736   1.075       .  S
C1732      C1733   1.391       .  A
C1732      H1737   1.084       .  S
C1733      C1734   1.390       .  A
C1734      H1738   1.083       .  S
C1739      C1740   1.398       .  A
C1739      C1744   1.383       .  A
C1739      H1745   1.077       .  S
C1740      C1741   1.406       .  A
C1741      C1742   1.387       .  A
C1741      H1746   1.082       .  S
C1742      C1743   1.396       .  A
C1742      H1747   1.084       .  S
C1743      C1744   1.401       .  A
C1744      H1748   1.084       .  S
C1749      C1750   1.393       .  A
C1749      C1754   1.379       .  A
C1749      H1755   1.077       .  S
C1750      C1751   1.412       .  A
C1751      C1752   1.391       .  A
C1751      H1756   1.082       .  S
C1752      C1753   1.394       .  A
C1752      H1757   1.083       .  S
C1753      C1754   1.406       .  A
C1754      H1758   1.084       .  S
C1759      C1760   1.404       .  A
C1759      C1764   1.386       .  A
C1759      H1765   1.080       .  S
C1760      C1761   1.412       .  A
C1761      C1762   1.391       .  A
C1761      H1766   1.080       .  S
C1762      C1763   1.396       .  A
C1762      H1767   1.084       .  S
C1763      C1764   1.400       .  A
C1764      H1768   1.084       .  S
C1769      C1770   1.398       .  A
C1769      C1774   1.384       .  A
C1769      H1775   1.082       .  S
C1770      C1771   1.401       .  A
C1771      C1772   1.396       .  A
C1771      H1776   1.083       .  S
C1772      C1773   1.407       .  A
C1772      H1777   1.080       .  S
C1773      C1774   1.403       .  A
C1774      H1778   1.080       .  S
C1779      C1780   1.408       .  A
C1779      C1784   1.390       .  A
C1779      H1785   1.080       .  S
C1780      C1781   1.401       .  A
C1781      C1782   1.385       .  A
C1781      H1786   1.080       .  S
C1782      C1783   1.403       .  A
C1782      H1787   1.084       .  S
C1783      C1784   1.398       .  A
C1784      H1788   1.083       .  S
C1789      C1790   1.404       .  A
C1789      C1794   1.389       .  A
C1789      H1795   1.081       .  S
C1790      C1791   1.401       .  A
C1791      C1792   1.388       .  A
C1791      H1796   1.081       .  S
C1792      C1793   1.403       .  A
C1792      H1797   1.083       .  S
C1793      C1794   1.400       .  A
C1794      H1798   1.083       .  S
C1799      C1800   1.407       .  A
C1799      C1804   1.385       .  A
C1799      H1805   1.083       .  S
C1800      C1801   1.395       .  A
C1801      C1802   1.380       .  A
C1801      H1806   1.075       .  S
C1802      C1803   1.403       .  A
C1802      H1807   1.083       .  S
C1803      C1804   1.395       .  A
C1804      H1808   1.083       .  S
C1809      C1810   1.406       .  A
C1809      C1814   1.389       .  A
C1809      H1815   1.080       .  S
C1810      C1811   1.404       .  A
C1811      C1812   1.383       .  A
C1811      H1816   1.080       .  S
C1812      C1813   1.396       .  A
C1812      H1817   1.084       .  S
C1813      C1814   1.396       .  A
C1814      H1818   1.084       .  S
C1819      C1821   1.557       .  S
C1819      C1823   1.558       .  S
C1819      C1822   1.539       .  S
C1819      C2416   1.499       .  S
C1820      C1824   1.540       .  S
C1820      C1826   1.546       .  S
C1820      C1825   1.556       .  S
C1820      C2406   1.494       .  S
C1821      C1829   1.395       .  A
C1821      C1824   1.380       .  A
C1822      C1833   1.385       .  A
C1822      C1825   1.385       .  A
C1823      C1837   1.397       .  A
C1823      C1826   1.381       .  A
C1824      C1827   1.390       .  A
C1825      C1831   1.397       .  A
C1826      C1834   1.388       .  A
C1827      N1828   1.364       .  A
C1827      H1840   1.082       .  S
N1828      C1829   1.365       .  A
N1828      C2102   1.466       .  S
C1829      H1830   1.081       .  S
C1831      N1832   1.363       .  A
C1831      H1841   1.079       .  S
N1832      C1833   1.361       .  A
N1832      C1862   1.461       .  S
C1833      H1839   1.082       .  S
C1834      N1835   1.358       .  A
C1834      H1836   1.081       .  S
N1835      C1837   1.368       .  A
N1835      C1919   1.465       .  S
C1837      H1838   1.081       .  S
N1842      C1847   1.358       .  A
N1842      H1874   1.040       .  S
N1843      C1850   1.359       .  A
N1843      C1851   1.358       .  A
N1844      C1849   1.359       .  A
N1844      H1875   1.041       .  S
N1845      C1852   1.358       .  A
N1845      C1853   1.359       .  A
C1846      C1854   1.385       .  A
C1846      C1862   1.422       .  A
C1847      C1863   1.424       .  A
C1847      C1855   1.387       .  A
C1848      C1856   1.387       .  A
C1848      C1865   1.424       .  A
C1849      C1864   1.423       .  A
C1849      C1857   1.385       .  A
C1850      C1862   1.425       .  A
C1850      C1858   1.385       .  A
C1851      C1865   1.425       .  A
C1851      C1859   1.386       .  A
C1852      C1860   1.386       .  A
C1852      C1863   1.423       .  A
C1853      C1861   1.385       .  A
C1853      C1864   1.424       .  A
C1854      H1866   1.082       .  S
C1855      H1867   1.082       .  S
C1856      H1868   1.082       .  S
C1857      H1869   1.082       .  S
C1858      C1859   1.377       .  A
C1858      H1870   1.082       .  S
C1859      H1871   1.082       .  S
C1860      C1861   1.376       .  A
C1860      H1872   1.082       .  S
C1861      H1873   1.082       .  S
C1863      N2151   1.457       .  S
C1864      N1892   1.461       .  S
C1865      N2197   1.459       .  S
C1876      C1878   1.550       .  S
C1876      C1880   1.535       .  S
C1876      C1879   1.557       .  S
C1876      C2386   1.504       .  S
C1877      C1881   1.553       .  S
C1877      C1883   1.541       .  S
C1877      C1882   1.556       .  S
C1877      C2396   1.508       .  S
C1878      C1886   1.392       .  A
C1878      C1881   1.385       .  A
C1879      C1890   1.396       .  A
C1879      C1882   1.389       .  A
C1880      C1894   1.383       .  A
C1880      C1883   1.380       .  A
C1881      C1884   1.392       .  A
C1882      C1888   1.392       .  A
C1883      C1891   1.389       .  A
C1884      N1885   1.358       .  A
C1884      H1897   1.081       .  S
N1885      C1886   1.361       .  A
N1885      C2068   1.458       .  S
C1886      H1887   1.081       .  S
C1888      N1889   1.360       .  A
C1888      H1898   1.080       .  S
N1889      C1890   1.364       .  A
N1889      C1954   1.464       .  S
C1890      H1896   1.081       .  S
C1891      N1892   1.368       .  A
C1891      H1893   1.082       .  S
N1892      C1894   1.363       .  A
C1894      H1895   1.082       .  S
N1899      C1903   1.359       .  A
N1899      H1931   1.041       .  S
N1900      C1907   1.361       .  A
N1900      C1908   1.362       .  A
N1901      C1905   1.363       .  A
N1901      H1932   1.040       .  S
N1902      C1909   1.360       .  A
N1902      C1910   1.359       .  A
C1903      C1911   1.387       .  A
C1903      C1919   1.425       .  A
C1904      C1920   1.424       .  A
C1904      C1912   1.385       .  A
C1905      C1913   1.386       .  A
C1905      C1922   1.431       .  A
C1906      C1921   1.432       .  A
C1906      C1914   1.387       .  A
C1907      C1919   1.433       .  A
C1907      C1915   1.387       .  A
C1908      C1922   1.431       .  A
C1908      C1916   1.385       .  A
C1909      C1917   1.385       .  A
C1909      C1920   1.426       .  A
C1910      C1918   1.385       .  A
C1910      C1921   1.426       .  A
C1911      H1923   1.082       .  S
C1912      H1924   1.082       .  S
C1913      H1925   1.082       .  S
C1914      H1926   1.082       .  S
C1915      C1916   1.380       .  A
C1915      H1927   1.082       .  S
C1916      H1928   1.082       .  S
C1917      C1918   1.377       .  A
C1917      H1929   1.082       .  S
C1918      H1930   1.082       .  S
C1920      N2200   1.465       .  S
C1921      N1983   1.465       .  S
C1922      N2177   1.470       .  S
N1933      C1937   1.360       .  A
N1933      H1965   1.040       .  S
N1934      C1941   1.352       .  A
N1934      C1942   1.353       .  A
N1935      C1939   1.359       .  A
N1935      H1966   1.041       .  S
N1936      C1943   1.360       .  A
N1936      C1944   1.360       .  A
C1937      C1945   1.385       .  A
C1937      C1953   1.425       .  A
C1938      C1954   1.427       .  A
C1938      C1946   1.387       .  A
C1939      C1947   1.385       .  A
C1939      C1956   1.422       .  A
C1940      C1955   1.424       .  A
C1940      C1948   1.387       .  A
C1941      C1953   1.411       .  A
C1941      C1949   1.384       .  A
C1942      C1956   1.412       .  A
C1942      C1950   1.385       .  A
C1943      C1951   1.385       .  A
C1943      C1954   1.427       .  A
C1944      C1952   1.386       .  A
C1944      C1955   1.428       .  A
C1945      H1957   1.082       .  S
C1946      H1958   1.082       .  S
C1947      H1959   1.082       .  S
C1948      H1960   1.082       .  S
C1949      C1950   1.373       .  A
C1949      H1961   1.082       .  S
C1950      H1962   1.082       .  S
C1951      C1952   1.378       .  A
C1951      H1963   1.082       .  S
C1952      H1964   1.082       .  S
C1953      N2147   1.451       .  S
C1955      N2128   1.462       .  S
C1956      N2033   1.451       .  S
C1967      C1969   1.531       .  S
C1967      C1971   1.545       .  S
C1967      C1970   1.557       .  S
C1967      C2366   1.502       .  S
C1968      C1972   1.555       .  S
C1968      C1974   1.550       .  S
C1968      C1973   1.556       .  S
C1968      C2379   1.512       .  S
C1969      C1977   1.384       .  A
C1969      C1972   1.377       .  A
C1970      C1981   1.395       .  A
C1970      C1973   1.392       .  A
C1971      C1985   1.388       .  A
C1971      C1974   1.386       .  A
C1972      C1975   1.395       .  A
C1973      C1979   1.391       .  A
C1974      C1982   1.392       .  A
C1975      N1976   1.363       .  A
C1975      H1988   1.081       .  S
N1976      C1977   1.357       .  A
N1976      C2070   1.456       .  S
C1977      H1978   1.082       .  S
C1979      N1980   1.363       .  A
C1979      H1989   1.081       .  S
N1980      C1981   1.366       .  A
N1980      C2011   1.465       .  S
C1981      H1987   1.082       .  S
C1982      N1983   1.368       .  A
C1982      H1984   1.082       .  S
N1983      C1985   1.363       .  A
C1985      H1986   1.082       .  S
N1990      C1995   1.360       .  A
N1990      C1994   1.358       .  A
N1990      H2022   1.040       .  S
N1991      C1999   1.362       .  A
N1992      C1997   1.360       .  A
N1992      C1996   1.362       .  A
N1992      H2023   1.041       .  S
N1993      C2001   1.358       .  A
C1994      C2002   1.387       .  A
C1994      C2010   1.425       .  A
C1995      C2011   1.426       .  A
C1995      C2003   1.386       .  A
C1996      C2004   1.386       .  A
C1996      C2013   1.429       .  A
C1997      C2012   1.428       .  A
C1997      C2005   1.387       .  A
C1998      C2010   1.428       .  A
C1998      C2006   1.385       .  A
C1999      C2013   1.430       .  A
C1999      C2007   1.385       .  A
C2000      C2008   1.384       .  A
C2000      C2011   1.425       .  A
C2001      C2009   1.387       .  A
C2001      C2012   1.428       .  A
C2002      C2003   1.381       .  A
C2002      H2014   1.082       .  S
C2003      H2015   1.082       .  S
C2004      C2005   1.380       .  A
C2004      H2016   1.082       .  S
C2005      H2017   1.082       .  S
C2006      H2018   1.082       .  S
C2007      H2019   1.082       .  S
C2008      H2020   1.082       .  S
C2009      H2021   1.082       .  S
C2010      N2174   1.460       .  S
C2012      N2131   1.463       .  S
C2013      N2037   1.471       .  S
C2024      C2026   1.543       .  S
C2024      C2028   1.534       .  S
C2024      C2027   1.565       .  S
C2024      C2356   1.499       .  S
C2025      C2029   1.549       .  S
C2025      C2031   1.549       .  S
C2025      C2030   1.561       .  S
C2025      C2346   1.505       .  S
C2026      C2034   1.389       .  A
C2026      C2029   1.379       .  A
C2027      C2038   1.402       .  A
C2027      C2030   1.391       .  A
C2028      C2042   1.383       .  A
C2028      C2031   1.380       .  A
C2029      C2032   1.391       .  A
C2030      C2036   1.396       .  A
C2031      C2039   1.395       .  A
C2032      N2033   1.356       .  A
C2032      H2045   1.081       .  S
N2033      C2034   1.359       .  A
C2034      H2035   1.082       .  S
C2036      N2037   1.360       .  A
C2036      H2046   1.078       .  S
N2037      C2038   1.366       .  A
C2038      H2044   1.080       .  S
C2039      N2040   1.371       .  A
C2039      H2041   1.082       .  S
N2040      C2042   1.361       .  A
N2040      C2104   1.466       .  S
C2042      H2043   1.082       .  S
N2047      C2052   1.356       .  A
N2047      C2051   1.358       .  A
N2047      H2079   1.041       .  S
N2048      C2055   1.358       .  A
N2048      C2056   1.357   1_554  A
N2049      C2054   1.359       .  A
N2049      C2053   1.357       .  A
N2049      H2080   1.042       .  S
N2050      C2057   1.359   1_556  A
N2050      C2058   1.361       .  A
C2051      C2059   1.386       .  A
C2051      C2067   1.422       .  A
C2052      C2068   1.421       .  A
C2052      C2060   1.386       .  A
C2053      C2061   1.387       .  A
C2053      C2070   1.422       .  A
C2054      C2069   1.421       .  A
C2054      C2062   1.385       .  A
C2055      C2067   1.425       .  A
C2055      C2063   1.386       .  A
C2056      C2070   1.423       .  A
C2056      C2064   1.386       .  A
C2057      C2065   1.386       .  A
C2057      C2068   1.428       .  A
C2058      C2066   1.385       .  A
C2058      C2069   1.427       .  A
C2059      C2060   1.379       .  A
C2059      H2071   1.082       .  S
C2060      H2072   1.082       .  S
C2061      C2062   1.378       .  A
C2061      H2073   1.082       .  S
C2062      H2074   1.082       .  S
C2063      C2064   1.378   1_554  A
C2063      H2075   1.082       .  S
C2064      H2076   1.082       .  S
C2065      C2066   1.378   1_554  A
C2065      H2077   1.082       .  S
C2066      H2078   1.082       .  S
C2067      N2193   1.459       .  S
C2069      N2124   1.463       .  S
N2081      C2086   1.362       .  A
N2081      C2085   1.362       .  A
N2081      H2113   1.040       .  S
N2082      C2089   1.360       .  A
N2082      C2090   1.359   1_554  A
N2083      C2088   1.364       .  A
N2083      C2087   1.363       .  A
N2083      H2114   1.040       .  S
N2084      C2091   1.361       .  A
N2084      C2092   1.362   1_554  A
C2085      C2093   1.387       .  A
C2085      C2101   1.431       .  A
C2086      C2102   1.429       .  A
C2086      C2094   1.386       .  A
C2087      C2095   1.387       .  A
C2087      C2104   1.433       .  A
C2088      C2103   1.433       .  A
C2088      C2096   1.386       .  A
C2089      C2101   1.424       .  A
C2089      C2097   1.385       .  A
C2090      C2104   1.424       .  A
C2090      C2098   1.385       .  A
C2091      C2099   1.385       .  A
C2091      C2102   1.430       .  A
C2092      C2100   1.386       .  A
C2092      C2103   1.431       .  A
C2093      C2094   1.381       .  A
C2093      H2105   1.082       .  S
C2094      H2106   1.082       .  S
C2095      C2096   1.381       .  A
C2095      H2107   1.082       .  S
C2096      H2108   1.082       .  S
C2097      C2098   1.376   1_554  A
C2097      H2109   1.082       .  S
C2098      H2110   1.082       .  S
C2099      C2100   1.377   1_554  A
C2099      H2111   1.082       .  S
C2100      H2112   1.081       .  S
C2101      N2154   1.465       .  S
C2103      N2170   1.472       .  S
C2115      C2117   1.546       .  S
C2115      C2119   1.535       .  S
C2115      C2118   1.555       .  S
C2115      C2336   1.483       .  S
C2116      C2120   1.554       .  S
C2116      C2122   1.553       .  S
C2116      C2121   1.538       .  S
C2116      C2329   1.486       .  S
C2117      C2125   1.389       .  A
C2117      C2120   1.381       .  A
C2118      C2129   1.397       .  A
C2118      C2121   1.376       .  A
C2119      C2133   1.382       .  A
C2119      C2122   1.379       .  A
C2120      C2123   1.393       .  A
C2121      C2127   1.387       .  A
C2122      C2130   1.394       .  A
C2123      N2124   1.367       .  A
C2123      H2136   1.082       .  S
N2124      C2125   1.360       .  A
C2125      H2126   1.082       .  S
C2127      N2128   1.359       .  A
C2127      H2137   1.082       .  S
N2128      C2129   1.364       .  A
C2129      H2135   1.080       .  S
C2130      N2131   1.367       .  A
C2130      H2132   1.081       .  S
N2131      C2133   1.361       .  A
C2133      H2134   1.082       .  S
C2138      C2140   1.561       .  S
C2138      C2142   1.549       .  S
C2138      C2141   1.544       .  S
C2138      C2306   1.513       .  S
C2139      C2143   1.549       .  S
C2139      C2145   1.535       .  S
C2139      C2144   1.552       .  S
C2139      C2319   1.507       .  S
C2140      C2148   1.396       .  A
C2140      C2143   1.392       .  A
C2141      C2152   1.385       .  A
C2141      C2144   1.386       .  A
C2142      C2156   1.392       .  A
C2142      C2145   1.383       .  A
C2143      C2146   1.390       .  A
C2144      C2150   1.392       .  A
C2145      C2153   1.383       .  A
C2146      N2147   1.357       .  A
C2146      H2159   1.081       .  S
N2147      C2148   1.353       .  A
C2148      H2149   1.077       .  S
C2150      N2151   1.363       .  A
C2150      H2160   1.081       .  S
N2151      C2152   1.359       .  A
C2152      H2158   1.082       .  S
C2153      N2154   1.362       .  A
C2153      H2155   1.082       .  S
N2154      C2156   1.370       .  A
C2156      H2157   1.082       .  S
C2161      C2163   1.558       .  S
C2161      C2165   1.561       .  S
C2161      C2164   1.542       .  S
C2161      C2286   1.509       .  S
C2162      C2166   1.562       .  S
C2162      C2168   1.545       .  S
C2162      C2167   1.549       .  S
C2162      C2296   1.509       .  S
C2163      C2171   1.397       .  A
C2163      C2166   1.387       .  A
C2164      C2175   1.388       .  A
C2164      C2167   1.382       .  A
C2165      C2179   1.400       .  A
C2165      C2168   1.385       .  A
C2166      C2169   1.399       .  A
C2167      C2173   1.392       .  A
C2168      C2176   1.389       .  A
C2169      N2170   1.366       .  A
C2169      H2182   1.080       .  S
N2170      C2171   1.365       .  A
C2171      H2172   1.081       .  S
C2173      N2174   1.363       .  A
C2173      H2183   1.081       .  S
N2174      C2175   1.363       .  A
C2175      H2181   1.082       .  S
C2176      N2177   1.364       .  A
C2176      H2178   1.082       .  S
N2177      C2179   1.368       .  A
C2179      H2180   1.081       .  S
C2184      C2186   1.542       .  S
C2184      C2188   1.548       .  S
C2184      C2187   1.555       .  S
C2184      C2276   1.496       .  S
C2185      C2189   1.552       .  S
C2185      C2191   1.553       .  S
C2185      C2190   1.536       .  S
C2185      C2269   1.494       .  S
C2186      C2194   1.386       .  A
C2186      C2189   1.384       .  A
C2187      C2198   1.394       .  A
C2187      C2190   1.384       .  A
C2188      C2202   1.392       .  A
C2188      C2191   1.378       .  A
C2189      C2192   1.394       .  A
C2190      C2196   1.383       .  A
C2191      C2199   1.394       .  A
C2192      N2193   1.363       .  A
C2192      H2205   1.081       .  S
N2193      C2194   1.362       .  A
C2194      H2195   1.082       .  S
C2196      N2197   1.360       .  A
C2196      H2206   1.082       .  S
N2197      C2198   1.363       .  A
C2198      H2204   1.079       .  S
C2199      N2200   1.365       .  A
C2199      H2201   1.082       .  S
N2200      C2202   1.362       .  A
C2202      H2203   1.082       .  S
O2207      C2215   1.308       .  A
O2208      C2216   1.276       .  A
O2208     Co2228   2.029       .  S
O2209      C2217   1.264       .  A
O2209     Co2229   1.951   1_556  S
O2210      C2218   1.254       .  A
O2210     Co2230   1.941   1_554  S
O2211      C2217   1.274       .  A
O2212      C2218   1.285       .  A
O2212     Co2227   2.019       .  S
O2213      C2216   1.253       .  A
O2213     Co2230   1.921       .  S
O2214      C2215   1.263       .  A
O2214     Co2229   1.868       .  S
C2215      C2419   1.441       .  S
C2216      C2349   1.437       .  S
C2217      C2299   1.442       .  S
C2218      C2309   1.440       .  S
O2219      C2232   1.246       .  A
O2220      C2233   1.246       .  A
O2221      C2234   1.286       .  A
O2222      C2235   1.260       .  A
O2223      C2235   1.244       .  A
O2224      C2234   1.260       .  A
O2225      C2232   1.255       .  A
O2226      C2233   1.260       .  A
Co2227     O2231   1.954   1_554  S
Co2228     O2231   1.981       .  S
Co2230     O2231   2.025       .  S
C2232      C2399   1.457       .  S
C2233      C2369   1.449       .  S
C2234      C2266   1.445       .  S
C2235      C2339   1.412       .  S
O2236      C2244   1.245       .  A
O2236     Co2256   1.949       .  S
O2237      C2245   1.263       .  A
O2237     Co2257   1.995       .  S
O2238      C2246   1.251       .  A
O2238     Co2258   1.989       .  S
O2239      C2247   1.249       .  A
O2239     Co2259   1.931       .  S
O2240      C2246   1.237       .  A
O2240     Co2257   1.934       .  S
O2241      C2247   1.267       .  A
O2241     Co2256   2.015       .  S
O2242      C2245   1.253       .  A
O2242     Co2259   1.944       .  S
O2243      C2244   1.249       .  A
O2243     Co2258   1.969       .  S
C2244      C2316   1.443       .  S
C2245      C2326   1.435       .  S
C2246      C2389   1.457       .  S
C2247      C2359   1.451       .  S
O2248      C2261   1.249       .  A
O2248     Co2256   1.966       .  S
O2249      C2262   1.268       .  A
O2249     Co2257   1.889       .  S
O2250      C2263   1.283       .  A
O2250     Co2258   2.014       .  S
O2251      C2264   1.266       .  A
O2251     Co2259   2.003       .  S
O2252      C2264   1.253       .  A
O2252     Co2257   1.975       .  S
O2253      C2263   1.274       .  A
O2253     Co2256   1.899       .  S
O2254      C2261   1.266       .  A
O2254     Co2259   2.017       .  S
O2255      C2262   1.284       .  A
O2255     Co2258   2.022       .  S
Co2256     O2260   1.936       .  S
Co2257     O2260   1.914       .  S
Co2258     O2260   2.214       .  S
Co2259     O2260   2.042       .  S
C2261      C2289   1.461       .  S
C2262      C2279   1.447       .  S
C2263      C2409   1.444       .  S
C2264      C2376   1.457       .  S
C2265      C2266   1.400       .  A
C2265      C2270   1.383       .  A
C2265      H2271   1.084       .  S
C2266      C2267   1.397       .  A
C2267      C2268   1.382       .  A
C2267      H2272   1.083       .  S
C2268      C2269   1.405       .  A
C2268      H2273   1.082       .  S
C2269      C2270   1.401       .  A
C2270      H2274   1.077       .  S
C2275      C2276   1.398       .  A
C2275      C2280   1.382       .  A
C2275      H2281   1.074       .  S
C2276      C2277   1.406       .  A
C2277      C2278   1.384       .  A
C2277      H2282   1.083       .  S
C2278      C2279   1.397       .  A
C2278      H2283   1.083       .  S
C2279      C2280   1.402       .  A
C2280      H2284   1.083       .  S
C2285      C2286   1.409       .  A
C2285      C2290   1.391       .  A
C2285      H2291   1.080       .  S
C2286      C2287   1.403       .  A
C2287      C2288   1.390       .  A
C2287      H2292   1.079       .  S
C2288      C2289   1.404       .  A
C2288      H2293   1.083       .  S
C2289      C2290   1.397       .  A
C2290      H2294   1.083       .  S
C2295      C2296   1.411       .  A
C2295      C2300   1.393       .  A
C2295      H2301   1.081       .  S
C2296      C2297   1.404       .  A
C2297      C2298   1.386       .  A
C2297      H2302   1.077       .  S
C2298      C2299   1.395       .  A
C2298      H2303   1.084       .  S
C2299      C2300   1.394       .  A
C2300      H2304   1.082       .  S
C2305      C2306   1.397       .  A
C2305      C2310   1.379       .  A
C2305      H2311   1.070       .  S
C2306      C2307   1.409       .  A
C2307      C2308   1.397       .  A
C2307      H2312   1.083       .  S
C2308      C2309   1.401       .  A
C2308      H2313   1.083       .  S
C2309      C2310   1.395       .  A
C2310      H2314   1.084       .  S
C2315      C2316   1.396       .  A
C2315      C2320   1.391       .  A
C2315      H2321   1.084       .  S
C2316      C2317   1.394       .  A
C2317      C2318   1.386       .  A
C2317      H2322   1.084       .  S
C2318      C2319   1.406       .  A
C2318      H2323   1.081       .  S
C2319      C2320   1.407       .  A
C2320      H2324   1.079       .  S
C2325      C2326   1.394       .  A
C2325      C2330   1.383       .  A
C2325      H2331   1.082       .  S
C2326      C2327   1.396       .  A
C2327      C2328   1.380       .  A
C2327      H2332   1.084       .  S
C2328      C2329   1.404       .  A
C2328      H2333   1.078       .  S
C2329      C2330   1.407       .  A
C2330      H2334   1.081       .  S
C2335      C2336   1.408       .  A
C2335      C2340   1.382       .  A
C2335      H2341   1.083       .  S
C2336      C2337   1.398       .  A
C2337      C2338   1.374       .  A
C2337      H2342   1.075       .  S
C2338      C2339   1.391       .  A
C2338      H2343   1.084       .  S
C2339      C2340   1.390       .  A
C2340      H2344   1.083       .  S
C2345      C2346   1.398       .  A
C2345      C2350   1.383       .  A
C2345      H2351   1.077       .  S
C2346      C2347   1.406       .  A
C2347      C2348   1.387       .  A
C2347      H2352   1.082       .  S
C2348      C2349   1.396       .  A
C2348      H2353   1.084       .  S
C2349      C2350   1.401       .  A
C2350      H2354   1.084       .  S
C2355      C2356   1.393       .  A
C2355      C2360   1.379       .  A
C2355      H2361   1.077       .  S
C2356      C2357   1.412       .  A
C2357      C2358   1.391       .  A
C2357      H2362   1.082       .  S
C2358      C2359   1.394       .  A
C2358      H2363   1.083       .  S
C2359      C2360   1.406       .  A
C2360      H2364   1.084       .  S
C2365      C2366   1.404       .  A
C2365      C2370   1.386       .  A
C2365      H2371   1.080       .  S
C2366      C2367   1.412       .  A
C2367      C2368   1.391       .  A
C2367      H2372   1.080       .  S
C2368      C2369   1.396       .  A
C2368      H2373   1.084       .  S
C2369      C2370   1.400       .  A
C2370      H2374   1.084       .  S
C2375      C2376   1.398       .  A
C2375      C2380   1.384       .  A
C2375      H2381   1.082       .  S
C2376      C2377   1.401       .  A
C2377      C2378   1.396       .  A
C2377      H2382   1.083       .  S
C2378      C2379   1.407       .  A
C2378      H2383   1.080       .  S
C2379      C2380   1.403       .  A
C2380      H2384   1.080       .  S
C2385      C2386   1.408       .  A
C2385      C2390   1.390       .  A
C2385      H2391   1.080       .  S
C2386      C2387   1.401       .  A
C2387      C2388   1.385       .  A
C2387      H2392   1.080       .  S
C2388      C2389   1.403       .  A
C2388      H2393   1.084       .  S
C2389      C2390   1.398       .  A
C2390      H2394   1.083       .  S
C2395      C2396   1.404       .  A
C2395      C2400   1.389       .  A
C2395      H2401   1.081       .  S
C2396      C2397   1.401       .  A
C2397      C2398   1.388       .  A
C2397      H2402   1.081       .  S
C2398      C2399   1.403       .  A
C2398      H2403   1.083       .  S
C2399      C2400   1.400       .  A
C2400      H2404   1.083       .  S
C2405      C2406   1.407       .  A
C2405      C2410   1.385       .  A
C2405      H2411   1.083       .  S
C2406      C2407   1.395       .  A
C2407      C2408   1.380       .  A
C2407      H2412   1.075       .  S
C2408      C2409   1.403       .  A
C2408      H2413   1.083       .  S
C2409      C2410   1.395       .  A
C2410      H2414   1.083       .  S
C2415      C2416   1.406       .  A
C2415      C2420   1.389       .  A
C2415      H2421   1.080       .  S
C2416      C2417   1.404       .  A
C2417      C2418   1.383       .  A
C2417      H2422   1.080       .  S
C2418      C2419   1.396       .  A
C2418      H2423   1.084       .  S
C2419      C2420   1.396       .  A
C2420      H2424   1.084       .  S
