geometry optimzed in LAMMPS
_audit_creation_date              2020-12-01 
_audit_creation_method            'lammps2cif' 
_symmetry_space_group_name_H-M    'P1' 
_symmetry_Int_Tables_number       1 
_symmetry_cell_setting            triclinic 
loop_ 
_symmetry_equiv_pos_as_xyz 
  x,y,z 
_cell_length_a                    37.6679961 
_cell_length_b                    38.924201896005584 
_cell_length_c                    38.110585099472 
_cell_angle_alpha                 90.23395812707697 
_cell_angle_beta                  90.25354647005683 
_cell_angle_gamma                 89.6672804938805 
loop_ 
_atom_site_label 
_atom_site_type_symbol 
_atom_site_fract_x 
_atom_site_fract_y 
_atom_site_fract_z 
_atom_site_charge 
C1          C  0.79383508  0.85827193  0.02391018     0.79600
N2          N  0.81539787  0.88496317  0.01736516    -0.78700
C3          C  0.83567485  0.88555313  0.98815254     0.82000
N4          N  0.83414619  0.85864228  0.96464297    -0.78700
C5          C  0.81148798  0.83162636  0.97061107     0.82100
N6          N  0.79189793  0.83220371  0.00036731    -0.80400
C7          C  0.75981019  0.15560582  0.02997804     0.79600
N8          N  0.79052551  0.13601742  0.03077316    -0.78700
C9          C  0.80002963  0.11612340  0.00204348     0.82000
N10         N  0.77831511  0.11677478  0.97283561    -0.78700
C11         C  0.74809428  0.13676483  0.97183175     0.82100
N12         N  0.73970335  0.15554241  0.00059635    -0.80400
C13         C  0.11304929  0.88224652  0.01642886     0.79600
N14         N  0.13383243  0.88046570  0.98754276    -0.78700
C15         C  0.12514322  0.89687370  0.95731085     0.82000
N16         N  0.09418848  0.91582927  0.95640747    -0.78700
C17         C  0.07259011  0.91723390  0.98537407     0.82100
N18         N  0.08254039  0.90061682  0.01490423    -0.80400
C19         C  0.80897531  0.03251584  0.82093920     0.79600
N20         N  0.82911123  0.03046230  0.85024295    -0.78700
C21         C  0.82688037  0.00346692  0.87240879     0.82000
N22         N  0.80413979  0.97694855  0.86445691    -0.78700
C23         C  0.78461064  0.97817247  0.83382292     0.82100
N24         N  0.78699300  0.00619481  0.81305522    -0.80400
C25         C  0.91303248  0.17528751  0.84528255     0.79600
N26         N  0.91182515  0.15526777  0.87495186    -0.78700
C27         C  0.94045515  0.13485515  0.88408947     0.82000
N28         N  0.97012653  0.13510416  0.86260898    -0.78700
C29         C  0.97171062  0.15611012  0.83353691     0.82100
N30         N  0.94277137  0.17515098  0.82576686    -0.80400
C31         C  0.91061296  0.89073983  0.82903302     0.79600
N32         N  0.91744124  0.91215022  0.85594572    -0.78700
C33         C  0.94813645  0.90966465  0.87413778     0.82000
N34         N  0.97290228  0.88530411  0.86499861    -0.78700
C35         C  0.96677860  0.86508212  0.83603648     0.82100
N36         N  0.93533247  0.86754501  0.81903580    -0.80400
C37         C  0.11330577  0.04150753  0.86911146     0.79600
N38         N  0.11014983  0.01942608  0.84175256    -0.78700
C39         C  0.08123033  0.99949176  0.83728399     0.82000
N40         N  0.05445584  0.00227226  0.86081594    -0.78700
C41         C  0.05706099  0.02432690  0.88844962     0.82100
N42         N  0.08658815  0.04366507  0.89271694    -0.80400
C43         C  0.90946619  0.84033422  0.13745332     0.79600
N44         N  0.94059559  0.82421087  0.14363725    -0.78700
C45         C  0.97178735  0.83639529  0.13189931     0.82000
N46         N  0.97189490  0.86577777  0.11210984    -0.78700
C47         C  0.94055680  0.88272954  0.10459558     0.82100
N48         N  0.90932310  0.87015754  0.11820356    -0.80400
C49         C  0.76826832  0.03345051  0.13490209     0.79600
N50         N  0.79653282  0.02881184  0.11362202    -0.78700
C51         C  0.80961864  0.99702214  0.10665159     0.82000
N52         N  0.79358559  0.96876719  0.12133539    -0.78700
C53         C  0.76428596  0.97334767  0.14246099     0.82100
N54         N  0.75236251  0.00562166  0.14893278    -0.80400
C55         C  0.89910760  0.13855011  0.18112518     0.79600
N56         N  0.93023177  0.14806034  0.19561232    -0.78700
C57         C  0.96164440  0.14187773  0.17984249     0.82000
N58         N  0.96203457  0.12440337  0.14832727    -0.78700
C59         C  0.93058617  0.11376092  0.13306436     0.82100
N60         N  0.89921307  0.12178285  0.14944652    -0.80400
Zr61       Zr  0.22255085  0.29189447  0.30128443     2.17500
O62         O  0.28095610  0.28179322  0.32760416    -0.52000
O63         O  0.21217078  0.34052608  0.33868929    -0.75200
O64         O  0.26594299  0.33222647  0.28498871    -0.82000
O65         O  0.16447749  0.26225610  0.37146383    -0.83700
O66         O  0.26672424  0.33406850  0.22529416    -0.79300
O67         O  0.21761293  0.25454086  0.35015287    -0.91000
O68         O  0.17236994  0.37340126  0.30923609    -0.76900
O69         O  0.20000092  0.32861699  0.25681799    -0.86400
O70         O  0.16087114  0.29859202  0.31418226    -0.86100
O71         O  0.23852694  0.26529418  0.24681119    -0.72900
O72         O  0.19948410  0.23484454  0.30228998    -0.85000
Zr73       Zr  0.12761707  0.25132613  0.21608903     2.26400
Zr74       Zr  0.21321255  0.30139619  0.20202264     2.06300
Zr75       Zr  0.13691839  0.24132411  0.31500440     2.10000
Zr76       Zr  0.13891543  0.33542341  0.27031448     1.78800
O77         O  0.14454786  0.18879751  0.34869460    -0.93800
O78         O  0.14057432  0.38961746  0.23867730    -0.41600
O79         O  0.11305819  0.27909014  0.27048894    -0.78300
O80         O  0.15098622  0.30923708  0.21499051    -0.96900
O81         O  0.18910428  0.24464871  0.20324134    -0.90200
O82         O  0.15171944  0.21410225  0.26005464    -0.93100
C83         C  0.19592075  0.36895582  0.33332695     1.00700
C84         C  0.19830420  0.26623344  0.37446670     1.13600
C85         C  0.27905863  0.34233699  0.25625354     1.04400
O86         O  0.19977787  0.35356537  0.16938688    -0.95200
O87         O  0.18708913  0.27032647  0.14938266    -0.91000
O88         O  0.13106479  0.28075393  0.16223946    -0.84100
C89         C  0.15363724  0.26810598  0.14159772     1.11000
O90         O  0.27249913  0.19965576  0.27189355    -0.97200
Zr91       Zr  0.21337043  0.20879640  0.24717597     1.88900
O92         O  0.13212946  0.19353286  0.19239277    -0.73900
O93         O  0.26119508  0.29265216  0.16012479    -0.53100
O94         O  0.25093799  0.19360091  0.19749334    -0.97800
O95         O  0.21717650  0.15571932  0.28073756    -0.55000
O96         O  0.18235776  0.16737289  0.21124691    -0.74400
C97         C  0.15322701  0.16757445  0.19385557     0.98000
O98         O  0.07829752  0.24498967  0.17491898    -0.63200
O99         O  0.08506881  0.25631859  0.34991598    -0.58000
O100        O  0.07430695  0.24591242  0.24898027    -0.94700
O101        O  0.08711271  0.20664523  0.28849291    -0.93100
O102        O  0.09546035  0.35278223  0.31423890    -0.93500
O103        O  0.08225092  0.34874860  0.24236545    -0.92300
C104        C  0.06831194  0.21659510  0.26194970     1.16800
H105        H  0.15627099  0.31007652  0.33588063     0.32700
H106        H  0.14025006  0.32499574  0.19849580     0.43600
H107        H  0.14142774  0.19149599  0.25937001     0.37100
H108        H  0.26404789  0.26406717  0.24444197     0.33600
H109        H  0.13557154  0.40739961  0.25667094     0.25400
H110        H  0.26014727  0.31304023  0.14469689     0.31300
H111        H  0.24145368  0.20706633  0.17752049     0.37200
H112        H  0.10722744  0.34912762  0.33719725     0.31700
H113        H  0.09099292  0.27885937  0.36049545     0.30600
H114        H  0.12709240  0.19090500  0.36794172     0.32300
H115        H  0.19260651  0.14684102  0.28106936     0.31200
H116        H  0.07272959  0.32620996  0.23486173     0.35200
H117        H  0.06979283  0.22114218  0.17743282     0.28000
H118        H  0.28824460  0.30371447  0.33872697     0.32200
H119        H  0.28332967  0.18112903  0.25756929     0.35000
H120        H  0.06630561  0.26165106  0.33246220     0.27600
H121        H  0.05890928  0.25979622  0.18393314     0.40500
H122        H  0.18803752  0.34538669  0.14763220     0.30600
H123        H  0.16590720  0.39279637  0.23277074     0.38200
H124        H  0.22167993  0.16320548  0.30521485     0.30000
H125        H  0.28351651  0.29527311  0.17364118     0.30100
H126        H  0.29756872  0.27830117  0.30782599     0.30400
C127        C  0.09689450  0.03929886  0.14396970     0.79600
N128        N  0.06901801  0.03502437  0.12214637    -0.78700
C129        C  0.05282911  0.00429690  0.11856500     0.82000
N130        N  0.06564801  0.97638898  0.13689004    -0.78700
C131        C  0.09461224  0.98060967  0.15869836     0.82100
N132        N  0.10952693  0.01198964  0.16197982    -0.80400
Zr133      Zr  0.23878556  0.73036922  0.28248669     2.17500
O134        O  0.29009609  0.69237139  0.28991047    -0.52000
O135        O  0.23164491  0.70664221  0.33998834    -0.75200
O136        O  0.29124661  0.75898597  0.30216956    -0.82000
O137        O  0.18415833  0.65927357  0.25238365    -0.83700
O138        O  0.27058183  0.80585589  0.33009061    -0.79300
O139        O  0.23988239  0.67735604  0.25019360    -0.91000
O140        O  0.18396147  0.73053312  0.36684611    -0.76900
O141        O  0.21317766  0.77504692  0.31716674    -0.86400
O142        O  0.17730443  0.71668980  0.28855630    -0.86100
O143        O  0.25265912  0.78241331  0.25158746    -0.72900
O144        O  0.21702201  0.72541341  0.22352446    -0.85000
Zr145      Zr  0.14210197  0.81018752  0.23388320     2.26400
Zr146      Zr  0.22583687  0.82733352  0.28653087     2.06300
Zr147      Zr  0.15473575  0.71249481  0.22937099     2.10000
Zr148      Zr  0.15191295  0.76172316  0.32216963     1.78800
O149        O  0.16316473  0.67794498  0.17668734    -0.93800
O150        O  0.14676882  0.79842965  0.37385224    -0.41600
O151        O  0.12833417  0.75792159  0.26400144    -0.78300
O152        O  0.16382863  0.81468974  0.29343829    -0.96900
O153        O  0.20332140  0.82326737  0.22777200    -0.90200
O154        O  0.16711297  0.76510334  0.19885145    -0.93100
C155        C  0.21183674  0.71160714  0.36665633     1.00700
C156        C  0.21768865  0.65415649  0.25781318     1.13600
C157        C  0.29204727  0.77988493  0.32781012     1.04400
O158        O  0.21794229  0.86816043  0.33457548    -0.95200
O159        O  0.19906831  0.87853787  0.25611753    -0.91000
O160        O  0.14207173  0.86506069  0.26134274    -0.84100
C161        C  0.16577533  0.88567440  0.25157481     1.11000
O162        O  0.28669036  0.75310990  0.18330214    -0.97200
Zr163      Zr  0.22824221  0.77820649  0.19361722     1.88900
O164        O  0.14536062  0.82801220  0.17335130    -0.73900
O165        O  0.27932031  0.85884888  0.27185649    -0.53100
O166        O  0.26942388  0.82273248  0.17565948    -0.97800
O167        O  0.22744164  0.74199114  0.14133249    -0.55000
O168        O  0.19736536  0.81142181  0.14918597    -0.74400
C169        C  0.16692423  0.82615501  0.14751816     0.98000
O170        O  0.09345704  0.85004272  0.22142948    -0.63200
O171        O  0.10466078  0.67671804  0.24556882    -0.58000
O172        O  0.09135271  0.77395190  0.23262318    -0.94700
O173        O  0.10311156  0.73392483  0.19356817    -0.93100
O174        O  0.11417962  0.71476276  0.34121633    -0.93500
O175        O  0.09200085  0.78439206  0.33047887    -0.92300
C176        C  0.08400359  0.75970291  0.20352228     1.16800
H177        H  0.17401457  0.69567951  0.30147711     0.32700
H178        H  0.15241974  0.83171018  0.30819574     0.43600
H179        H  0.15663601  0.76392142  0.17574244     0.37100
H180        H  0.27779953  0.78640515  0.24906061     0.33600
H181        H  0.13423699  0.78421887  0.39131981     0.25400
H182        H  0.27870268  0.86041110  0.24593088     0.31300
H183        H  0.27237898  0.81913788  0.15009765     0.37200
H184        H  0.09318163  0.71566002  0.32552450     0.31700
H185        H  0.08801497  0.69265337  0.25750710     0.30600
H186        H  0.17848651  0.69211252  0.16155428     0.32300
H187        H  0.24290489  0.75393517  0.12441067     0.31200
H188        H  0.08107498  0.78467152  0.30680851     0.35200
H189        H  0.08419391  0.84384329  0.19794300     0.28000
H190        H  0.29848891  0.69538186  0.31439086     0.32200
H191        H  0.28530648  0.72969081  0.19324270     0.35000
H192        H  0.09280014  0.67102752  0.22306624     0.27600
H193        H  0.07439237  0.84406583  0.23806002     0.40500
H194        H  0.19294110  0.86564960  0.34196781     0.30600
H195        H  0.17128389  0.80036298  0.38307717     0.38200
H196        H  0.20322781  0.74465849  0.13146694     0.30000
H197        H  0.27451177  0.88259455  0.28003526     0.30100
H198        H  0.30913298  0.70193802  0.27507239     0.30400
Zr199      Zr  0.72871206  0.24947150  0.20680992     2.17500
O200        O  0.77942183  0.26028969  0.16912169    -0.52000
O201        O  0.73469869  0.19002102  0.18741315    -0.75200
O202        O  0.78609771  0.25008395  0.23319477    -0.82000
O203        O  0.65818452  0.24751160  0.14164676    -0.83700
O204        O  0.77834260  0.22024225  0.28158132    -0.79300
O205        O  0.71277083  0.26724932  0.14872674    -0.91000
O206        O  0.69617977  0.15816137  0.21906765    -0.76900
O207        O  0.72045264  0.21739169  0.25949811    -0.86400
O208        O  0.67014577  0.22609346  0.20475762    -0.86100
O209        O  0.73922166  0.29014465  0.25385482    -0.72900
O210        O  0.68983694  0.29791718  0.19821801    -0.85000
Zr211      Zr  0.63205548  0.28224178  0.29719491     2.26400
Zr212      Zr  0.72921505  0.25756722  0.30665420     2.06300
Zr213      Zr  0.63074727  0.27445350  0.19625180     2.10000
Zr214      Zr  0.66202891  0.19514990  0.25725050     1.78800
O215        O  0.62364229  0.32087792  0.15413769    -0.93800
O216        O  0.68689118  0.15236215  0.29713453    -0.41600
O217        O  0.62148204  0.24236795  0.25011204    -0.78300
O218        O  0.67028218  0.23317177  0.30596837    -0.96900
O219        O  0.68914386  0.29996447  0.29263933    -0.90200
O220        O  0.63943216  0.31467692  0.24436464    -0.93100
C221        C  0.71992685  0.16143280  0.19542147     1.00700
C222        C  0.69103628  0.24899292  0.13150532     1.13600
C223        C  0.79491922  0.22493145  0.25226872     1.04400
O224        O  0.73589989  0.21862830  0.35615162    -0.95200
O225        O  0.70403548  0.29197045  0.35714127    -0.91000
O226        O  0.64942909  0.27081141  0.35627335    -0.84100
C227        C  0.67250386  0.28994481  0.37041168     1.11000
O228        O  0.74269418  0.35786135  0.20688474    -0.97200
Zr229      Zr  0.69786725  0.33606727  0.24681415     1.88900
O230        O  0.62453433  0.34136372  0.31612139    -0.73900
O231        O  0.78234273  0.28632891  0.32815309    -0.53100
O232        O  0.74122618  0.37026071  0.27881552    -0.97800
O233        O  0.67172531  0.38111243  0.21040082    -0.55000
O234        O  0.66623275  0.37180771  0.28770250    -0.74400
C235        C  0.64115837  0.36930615  0.30994886     0.98000
O236        O  0.58197037  0.27738112  0.33723838    -0.63200
O237        O  0.58161917  0.24494669  0.16768790    -0.58000
O238        O  0.57629004  0.27212147  0.26929903    -0.94700
O239        O  0.57619373  0.30323088  0.22130268    -0.93100
O240        O  0.61880452  0.16321480  0.22261052    -0.93500
O241        O  0.61610540  0.16800170  0.29214510    -0.92300
C242        C  0.56324945  0.29681141  0.25191055     1.16800
H243        H  0.66752738  0.20928025  0.18628877     0.32700
H244        H  0.66555115  0.22038800  0.32710205     0.43600
H245        H  0.62371002  0.33430058  0.24368848     0.37100
H246        H  0.76244700  0.30055399  0.25413823     0.33600
H247        H  0.70735037  0.14215505  0.28455661     0.25400
H248        H  0.77476817  0.29835117  0.34982628     0.31300
H249        H  0.74339702  0.35888583  0.30191603     0.37200
H250        H  0.60895002  0.18020420  0.20588287     0.31700
H251        H  0.56944263  0.23277733  0.18691040     0.30600
H252        H  0.59875289  0.32868761  0.15697078     0.32300
H253        H  0.68366986  0.40241841  0.21825598     0.31200
H254        H  0.59483965  0.18274990  0.28893142     0.35200
H255        H  0.58434961  0.25451511  0.34835029     0.28000
H256        H  0.77696054  0.28435763  0.16111031     0.32200
H257        H  0.73608083  0.34857367  0.18354488     0.35000
H258        H  0.56492711  0.26350076  0.16081109     0.27600
H259        H  0.58606169  0.29420928  0.35635904     0.40500
H260        H  0.73935249  0.23380975  0.37678094     0.30600
H261        H  0.69782311  0.16581406  0.31640452     0.38200
H262        H  0.64696645  0.38391755  0.21855100     0.30000
H263        H  0.79787367  0.26743415  0.33655010     0.30100
H264        H  0.77639876  0.24576078  0.14796339     0.30400
Zr265      Zr  0.64109423  0.72082505  0.27646497     2.17500
O266        O  0.59494938  0.67703884  0.27717670    -0.52000
O267        O  0.63211181  0.70993510  0.33801941    -0.75200
O268        O  0.66601888  0.66535568  0.26709914    -0.82000
O269        O  0.57590633  0.78812352  0.28796191    -0.83700
O270        O  0.71713746  0.66911853  0.29531456    -0.79300
O271        O  0.58130312  0.73674466  0.26305877    -0.91000
O272        O  0.66947998  0.74170085  0.37115289    -0.76900
O273        O  0.69722646  0.72649539  0.30476446    -0.86400
O274        O  0.64150286  0.77567988  0.30485233    -0.86100
O275        O  0.68391413  0.71270147  0.22999539    -0.72900
O276        O  0.62829613  0.76101283  0.23060640    -0.85000
Zr277      Zr  0.72980450  0.81469355  0.24190697     2.26400
Zr278      Zr  0.74051915  0.71866961  0.25933321     2.06300
Zr279      Zr  0.62875193  0.81652224  0.25898420     2.10000
Zr280      Zr  0.69781203  0.78140548  0.33181561     1.78800
O281        O  0.58157042  0.82672045  0.21635456    -0.93800
O282        O  0.74788323  0.76171115  0.36717934    -0.41600
O283        O  0.68630058  0.82297180  0.28712685    -0.78300
O284        O  0.74201088  0.77409264  0.28766522    -0.96900
O285        O  0.72917440  0.75987320  0.21397564    -0.90200
O286        O  0.67315520  0.80906684  0.21401080    -0.93100
C287        C  0.64530669  0.71898739  0.36762227     1.00700
C288        C  0.56518520  0.75665882  0.28415940     1.13600
C289        C  0.68682671  0.65419853  0.29053954     1.04400
O290        O  0.79346201  0.70698348  0.29428519    -0.95200
O291        O  0.79038376  0.74468516  0.22417051    -0.91000
O292        O  0.79082870  0.79873979  0.24466724    -0.84100
C293        C  0.80407268  0.77523381  0.22555589     1.11000
O294        O  0.63510528  0.70986099  0.16276667    -0.97200
Zr295      Zr  0.67291471  0.75506507  0.18628697     1.88900
O296        O  0.73648346  0.83165246  0.18105005    -0.73900
O297        O  0.75561966  0.66857482  0.22387724    -0.53100
O298        O  0.70420205  0.71965562  0.14350705    -0.97800
O299        O  0.62637165  0.77976397  0.14943387    -0.55000
O300        O  0.70543374  0.79339683  0.14838516    -0.74400
C301        C  0.72570069  0.81956952  0.15149147     0.98000
O302        O  0.77825672  0.85429660  0.25435217    -0.63200
O303        O  0.60570114  0.86281254  0.29570835    -0.58000
O304        O  0.70296405  0.86823706  0.25756177    -0.94700
O305        O  0.65157823  0.87055732  0.23026360    -0.93100
O306        O  0.66280812  0.81363165  0.37446166    -0.93500
O307        O  0.72942888  0.83160495  0.35362254    -0.92300
C308        C  0.68357334  0.88188923  0.23416946     1.16800
H309        H  0.62451271  0.77678171  0.32372001     0.32700
H310        H  0.76496253  0.77778473  0.29837353     0.43600
H311        H  0.66984614  0.82547889  0.19532818     0.37100
H312        H  0.68297720  0.69114654  0.21736203     0.33600
H313        H  0.73940108  0.76312734  0.39169252     0.25400
H314        H  0.76150426  0.67808818  0.20057536     0.31300
H315        H  0.71063673  0.69843685  0.15634153     0.37200
H316        H  0.67167782  0.80598358  0.39765719     0.31700
H317        H  0.62509605  0.87984143  0.29690444     0.30600
H318        H  0.56104909  0.83451493  0.23049983     0.32300
H319        H  0.63258469  0.77257144  0.12527578     0.31200
H320        H  0.75162340  0.83213934  0.33981682     0.35200
H321        H  0.78038044  0.86898679  0.23336367     0.28000
H322        H  0.59980503  0.66277783  0.29811136     0.32200
H323        H  0.62547770  0.69818859  0.18368082     0.35000
H324        H  0.58711337  0.87395204  0.28116493     0.27600
H325        H  0.76987948  0.86959404  0.27343823     0.40500
H326        H  0.79300273  0.68188546  0.29835782     0.30600
H327        H  0.74959624  0.73677024  0.36218808     0.38200
H328        H  0.63050860  0.80485210  0.14985793     0.30000
H329        H  0.77864806  0.66047837  0.23345342     0.30100
H330        H  0.59955141  0.66177958  0.25683408     0.30400
C331        C  0.08477682  0.17763212  0.04257618     0.79600
N332        N  0.09768708  0.18951737  0.01218643    -0.78700
C333        C  0.08570985  0.17862410  0.98084542     0.82000
N334        N  0.05940359  0.15423374  0.97967157    -0.78700
C335        C  0.04550698  0.14123813  0.01036549     0.82100
N336        N  0.05835036  0.15342652  0.04199513    -0.80400
Zr337      Zr  0.15167523  0.22484727  0.80048960     2.17500
O338        O  0.09428200  0.21636734  0.82835838    -0.52000
O339        O  0.17155903  0.17864735  0.83739578    -0.75200
O340        O  0.12549455  0.17457592  0.77572478    -0.82000
O341        O  0.19261896  0.26677372  0.87231638    -0.83700
O342        O  0.10711917  0.19250512  0.72324345    -0.79300
O343        O  0.14014177  0.26380631  0.84698773    -0.91000
O344        O  0.21603416  0.15430241  0.80626856    -0.76900
O345        O  0.18276567  0.20273028  0.75517112    -0.86400
O346        O  0.21288501  0.22919576  0.81673889    -0.86100
O347        O  0.13093305  0.25177022  0.74738359    -0.72900
O348        O  0.16308761  0.28522199  0.80371092    -0.85000
Zr349      Zr  0.23779872  0.28486224  0.71923656     2.26400
Zr350      Zr  0.16295619  0.22194962  0.70161851     2.06300
Zr351      Zr  0.22494964  0.28965514  0.81889828     2.10000
Zr352      Zr  0.24120851  0.19921722  0.77044338     1.78800
O353        O  0.21277344  0.34074467  0.85389320    -0.93800
O354        O  0.24884617  0.14956995  0.73202598    -0.41600
O355        O  0.25631157  0.25880523  0.77348638    -0.78300
O356        O  0.22542505  0.22375243  0.71534144    -0.96900
O357        O  0.17624996  0.28210457  0.70362817    -0.90200
O358        O  0.20742637  0.31600125  0.76439297    -0.93100
C359        C  0.19224341  0.15343609  0.83016506     1.00700
C360        C  0.15922004  0.25893797  0.87382137     1.13600
C361        C  0.10153456  0.17631040  0.75247752     1.04400
O362        O  0.18015455  0.16670032  0.67663267    -0.95200
O363        O  0.18947552  0.25144593  0.64809213    -0.91000
O364        O  0.24565896  0.25569747  0.66526715    -0.84100
C365        C  0.22230111  0.25974461  0.64181317     1.11000
O366        O  0.08514807  0.31216697  0.77086282    -0.97200
Zr367      Zr  0.14608373  0.31156609  0.74959259     1.88900
O368        O  0.22237794  0.34180849  0.69773189    -0.73900
O369        O  0.11615704  0.22020584  0.65730559    -0.53100
O370        O  0.10899191  0.32193300  0.69820262    -0.97800
O371        O  0.13151499  0.36076962  0.78669168    -0.55000
O372        O  0.16972935  0.36077250  0.71924740    -0.74400
C373        C  0.19818794  0.36480614  0.70153756     0.98000
O374        O  0.28506190  0.30165652  0.67902205    -0.63200
O375        O  0.27627317  0.27709483  0.85585701    -0.58000
O376        O  0.29028155  0.29801418  0.75200404    -0.94700
O377        O  0.27105852  0.33087249  0.79588045    -0.93100
O378        O  0.28252930  0.18012367  0.81573974    -0.93500
O379        O  0.30272723  0.20224698  0.75121297    -0.92300
C380        C  0.29198388  0.32575985  0.76941982     1.16800
H381        H  0.21929783  0.21887075  0.83886473     0.32700
H382        H  0.23853360  0.20989379  0.69869660     0.43600
H383        H  0.21418402  0.33986739  0.76513992     0.37100
H384        H  0.10550472  0.25000802  0.74492748     0.33600
H385        H  0.26388022  0.13343701  0.74563928     0.25400
H386        H  0.10341371  0.24236330  0.66008524     0.31300
H387        H  0.09252522  0.30221475  0.69735253     0.37200
H388        H  0.29150822  0.15763327  0.80722442     0.31700
H389        H  0.27520491  0.25198541  0.85975779     0.30600
H390        H  0.18676879  0.34408115  0.85182956     0.32300
H391        H  0.15372014  0.37419738  0.78809189     0.31200
H392        H  0.30399728  0.22322362  0.73667709     0.35200
H393        H  0.28240270  0.32648500  0.67436719     0.28000
H394        H  0.09241418  0.19143453  0.83297836     0.32200
H395        H  0.08510703  0.29549510  0.79043411     0.35000
H396        H  0.29697443  0.28012360  0.84027355     0.27600
H397        H  0.30824323  0.29902441  0.69102337     0.40500
H398        H  0.18410243  0.17153370  0.65146678     0.30600
H399        H  0.22520909  0.13861986  0.73121885     0.38200
H400        H  0.12875797  0.35113393  0.81052900     0.30000
H401        H  0.12842409  0.22207602  0.63448656     0.30100
H402        H  0.07632393  0.22145411  0.81009327     0.30400
Zr403      Zr  0.13874435  0.80234843  0.78633500     2.17500
O404        O  0.10581120  0.80695070  0.84127499    -0.52000
O405        O  0.10402699  0.85269861  0.77194558    -0.75200
O406        O  0.16475811  0.83895069  0.82898445    -0.82000
O407        O  0.06500556  0.75749534  0.74329197    -0.83700
O408        O  0.22342191  0.84648959  0.81797393    -0.79300
O409        O  0.09183928  0.76207562  0.79460159    -0.91000
O410        O  0.13557594  0.87883434  0.72991850    -0.76900
O411        O  0.18026745  0.83553415  0.75435663    -0.86400
O412        O  0.11871886  0.79896915  0.72694816    -0.86100
O413        O  0.19631846  0.77883634  0.79995330    -0.72900
O414        O  0.13904681  0.74223353  0.77311437    -0.85000
Zr415      Zr  0.21675624  0.74779762  0.69135590     2.26400
Zr416      Zr  0.23763848  0.81078568  0.76499029     2.06300
Zr417      Zr  0.11947485  0.73835388  0.71285948     2.10000
Zr418      Zr  0.16028725  0.83201020  0.69526386     1.78800
O419        O  0.08798083  0.68687412  0.73053236    -0.93800
O420        O  0.19218109  0.88309234  0.67693143    -0.41600
O421        O  0.15986786  0.77221667  0.67897174    -0.78300
O422        O  0.21835952  0.80818171  0.70453053    -0.96900
O423        O  0.23699403  0.75118086  0.75055550    -0.90200
O424        O  0.17678650  0.71470631  0.72536006    -0.93100
C425        C  0.11393409  0.87969202  0.75573535     1.00700
C426        C  0.06426451  0.76603835  0.77587776     1.13600
C427        C  0.19470856  0.85232257  0.83573427     1.04400
O428        O  0.26391334  0.86114745  0.73799426    -0.95200
O429        O  0.28913752  0.77521859  0.74397125    -0.91000
O430        O  0.27620783  0.76836021  0.68714967    -0.84100
C431        C  0.29733306  0.76437592  0.71283621     1.11000
O432        O  0.17975428  0.71499027  0.84564318    -0.97200
Zr433      Zr  0.19696932  0.71913393  0.78430097     1.88900
O434        O  0.25056562  0.69633584  0.70314682    -0.73900
O435        O  0.28598986  0.81833223  0.80698669    -0.53100
O436        O  0.25026372  0.71447638  0.82037760    -0.97800
O437        O  0.16591222  0.66615205  0.79784976    -0.55000
O438        O  0.23437114  0.67588218  0.75618909    -0.74400
C439        C  0.25121998  0.67326186  0.72707145     0.98000
O440        O  0.23038928  0.75470663  0.62933504    -0.63200
O441        O  0.07979927  0.74854358  0.66331458    -0.58000
O442        O  0.19384654  0.70344645  0.65411703    -0.94700
O443        O  0.13563730  0.69468871  0.66740650    -0.93100
O444        O  0.10431091  0.84262908  0.66469756    -0.93500
O445        O  0.17440440  0.83775364  0.63326286    -0.92300
C446        C  0.16459975  0.68724968  0.65071005     1.16800
H447        H  0.09537387  0.80880402  0.72391428     0.32700
H448        H  0.23496589  0.81975088  0.68950581     0.43600
H449        H  0.17743485  0.69068191  0.71909759     0.37100
H450        H  0.20177097  0.78112876  0.82459119     0.33600
H451        H  0.17343732  0.90038598  0.67205528     0.25400
H452        H  0.28649664  0.79675254  0.82064244     0.31300
H453        H  0.26417107  0.73523900  0.81479255     0.37200
H454        H  0.09012996  0.85721101  0.68079458     0.31700
H455        H  0.06829470  0.77088896  0.66864838     0.30600
H456        H  0.10693862  0.67090187  0.73837793     0.32300
H457        H  0.18303085  0.65259403  0.81199906     0.31200
H458        H  0.17365270  0.81406179  0.62376152     0.35200
H459        H  0.25216160  0.74086525  0.62543001     0.28000
H460        H  0.10014298  0.83162305  0.84464812     0.32200
H461        H  0.15862186  0.73011152  0.84769536     0.35000
H462        H  0.09577666  0.75350049  0.64342385     0.27600
H463        H  0.23807035  0.77887010  0.62700159     0.40500
H464        H  0.26933698  0.87663838  0.75795842     0.30600
H465        H  0.20407167  0.89148496  0.69851239     0.38200
H466        H  0.16433656  0.65367919  0.77521732     0.30000
H467        H  0.30803970  0.81770243  0.79295072     0.30100
H468        H  0.12261770  0.80094629  0.86038242     0.30400
Zr469      Zr  0.72767771  0.23449432  0.79924101     2.17500
O470        O  0.76944693  0.22002749  0.84633421    -0.52000
O471        O  0.75541499  0.17935999  0.78752526    -0.75200
O472        O  0.69935059  0.21524387  0.85133427    -0.82000
O473        O  0.80054184  0.27320737  0.75281896    -0.83700
O474        O  0.64957553  0.18944292  0.83128911    -0.79300
O475        O  0.77743178  0.27191661  0.80598877    -0.91000
O476        O  0.74492865  0.16087481  0.73223125    -0.76900
O477        O  0.68501887  0.20021473  0.76938562    -0.86400
O478        O  0.74465657  0.23439304  0.73888530    -0.86100
O479        O  0.67090625  0.26079845  0.81227906    -0.72900
O480        O  0.72951198  0.29395970  0.78266544    -0.85000
Zr481      Zr  0.64612629  0.28445090  0.70289134     2.26400
Zr482      Zr  0.62827696  0.22633062  0.78091528     2.06300
Zr483      Zr  0.74554806  0.29384113  0.72133253     2.10000
Zr484      Zr  0.70178443  0.20063875  0.70917681     1.78800
O485        O  0.77632598  0.34795066  0.73098199    -0.93800
O486        O  0.67354730  0.14458078  0.71279135    -0.41600
O487        O  0.70276089  0.25915133  0.69012211    -0.78300
O488        O  0.64467847  0.22481442  0.71992037    -0.96900
O489        O  0.62915836  0.28526773  0.76314354    -0.90200
O490        O  0.68842310  0.31970205  0.73275838    -0.93100
C491        C  0.75904953  0.15751663  0.76254318     1.00700
C492        C  0.80356627  0.26633542  0.78589069     1.13600
C493        C  0.67600266  0.19190308  0.85319369     1.04400
O494        O  0.59876750  0.17384288  0.76221641    -0.95200
O495        O  0.57459288  0.25480909  0.75307097    -0.91000
O496        O  0.59111509  0.25532063  0.69711643    -0.84100
C497        C  0.56786646  0.26098460  0.72022783     1.11000
O498        O  0.69424313  0.33048179  0.85184419    -0.97200
Zr499      Zr  0.67217786  0.31898905  0.79279860     1.88900
O500        O  0.61929365  0.34025383  0.71223102    -0.73900
O501        O  0.58377250  0.22821028  0.82707020    -0.53100
O502        O  0.62721765  0.33181716  0.83669182    -0.97800
O503        O  0.70426506  0.37305570  0.78995867    -0.55000
O504        O  0.62885383  0.35769254  0.76808544    -0.74400
C505        C  0.61503542  0.36148205  0.73767039     0.98000
O506        O  0.60920397  0.29418653  0.65094759    -0.63200
O507        O  0.78691029  0.28088141  0.67411795    -0.58000
O508        O  0.68057266  0.29744490  0.65217093    -0.94700
O509        O  0.72335921  0.33166226  0.67236631    -0.93100
O510        O  0.74362040  0.19271052  0.66125335    -0.93500
O511        O  0.67430708  0.18810629  0.65259860    -0.92300
C512        C  0.69808906  0.32511726  0.65026874     1.16800
H513        H  0.76760583  0.22376488  0.73549133     0.32700
H514        H  0.62839700  0.21044304  0.70691752     0.43600
H515        H  0.68761902  0.34311359  0.72453124     0.37100
H516        H  0.66477931  0.26199153  0.83682857     0.33600
H517        H  0.66887818  0.14117096  0.73808145     0.25400
H518        H  0.58402454  0.25226865  0.83556768     0.31300
H519        H  0.61117335  0.31177445  0.83598415     0.37200
H520        H  0.76736009  0.19468745  0.67228690     0.31700
H521        H  0.79213098  0.25605981  0.67671170     0.30600
H522        H  0.79481632  0.34276294  0.74874286     0.32300
H523        H  0.72849621  0.36752690  0.79846583     0.31200
H524        H  0.66085861  0.20923161  0.64660424     0.35200
H525        H  0.61529097  0.31730826  0.64219844     0.28000
H526        H  0.76478159  0.19595857  0.85311312     0.32200
H527        H  0.71922290  0.32244280  0.85157497     0.35000
H528        H  0.77251279  0.28238632  0.65237877     0.27600
H529        H  0.61809468  0.27800498  0.63283336     0.40500
H530        H  0.61089734  0.15539561  0.77557198     0.30600
H531        H  0.64970148  0.14765710  0.70222135     0.38200
H532        H  0.69380430  0.38744735  0.80877556     0.30000
H533        H  0.56071889  0.22587979  0.81472336     0.30100
H534        H  0.76231097  0.23398913  0.86692606     0.30400
Zr535      Zr  0.70523635  0.80081987  0.80549869     2.17500
O536        O  0.69701152  0.82104871  0.86556375    -0.52000
O537        O  0.75605300  0.83631354  0.79718046    -0.75200
O538        O  0.74441673  0.78159245  0.85002112    -0.82000
O539        O  0.67489610  0.87150788  0.75078841    -0.83700
O540        O  0.75480504  0.72434319  0.84217120    -0.79300
O541        O  0.67456352  0.85483089  0.80648536    -0.91000
O542        O  0.78896405  0.81159329  0.75429657    -0.76900
O543        O  0.74418751  0.75854897  0.78129113    -0.86400
O544        O  0.71224729  0.81577229  0.74527428    -0.86100
O545        O  0.67827027  0.74684081  0.81829996    -0.72900
O546        O  0.64570695  0.80233894  0.78364695    -0.85000
Zr547      Zr  0.66477068  0.72122293  0.70795479     2.26400
Zr548      Zr  0.71646448  0.70436255  0.79189647     2.06300
Zr549      Zr  0.65280721  0.81719584  0.72270801     2.10000
Zr550      Zr  0.75040153  0.77366194  0.72130614     1.78800
O551        O  0.59783361  0.84857491  0.73333542    -0.93800
O552        O  0.80691784  0.74284115  0.72017006    -0.41600
O553        O  0.69187090  0.77516909  0.69615009    -0.78300
O554        O  0.72421960  0.71895276  0.73091363    -0.96900
O555        O  0.65785923  0.70535224  0.76777214    -0.90200
O556        O  0.62583753  0.76266048  0.73351867    -0.93100
C557        C  0.78428674  0.83362333  0.77893511     1.00700
C558        C  0.68182502  0.87722494  0.78357572     1.13600
C559        C  0.75996730  0.75356810  0.85800655     1.04400
O560        O  0.76648816  0.66541302  0.78320617    -0.95200
O561        O  0.68789736  0.65233797  0.76459887    -0.91000
O562        O  0.68935816  0.66461023  0.70735374    -0.84100
C563        C  0.68239947  0.64399479  0.73202461     1.11000
O564        O  0.60504565  0.77064553  0.85066881    -0.97200
Zr565      Zr  0.61990143  0.74700208  0.79326293     1.88900
O566        O  0.61323190  0.68637449  0.71625684    -0.73900
O567        O  0.70393905  0.66999132  0.84359780    -0.53100
O568        O  0.60805722  0.70022692  0.83369890    -0.97800
O569        O  0.56148339  0.77429114  0.79195559    -0.55000
O570        O  0.58176472  0.70722026  0.76203735    -0.74400
C571        C  0.58563872  0.68716953  0.73550425     0.98000
O572        O  0.67581276  0.70231417  0.64786424    -0.63200
O573        O  0.66584824  0.85317334  0.67229048    -0.58000
O574        O  0.62568504  0.74194857  0.66317253    -0.94700
O575        O  0.61592351  0.79927998  0.67139856    -0.93100
O576        O  0.76552942  0.82084376  0.68243406    -0.93500
O577        O  0.76592593  0.74961315  0.66424252    -0.92300
C578        C  0.61050146  0.77034609  0.65536560     1.16800
H579        H  0.72395208  0.83734413  0.74134238     0.32700
H580        H  0.73871091  0.70182893  0.71928060     0.43600
H581        H  0.60237858  0.76172499  0.72333273     0.37100
H582        H  0.67706967  0.74351017  0.84334543     0.33600
H583        H  0.82447928  0.75875387  0.73058283     0.25400
H584        H  0.67888853  0.67526626  0.84931663     0.31300
H585        H  0.61638498  0.67926720  0.82134462     0.37200
H586        H  0.78853095  0.81412574  0.67188204     0.31700
H587        H  0.66351639  0.87706748  0.68100825     0.30600
H588        H  0.57934705  0.83058877  0.73354863     0.32300
H589        H  0.54622891  0.75890877  0.80591826     0.31200
H590        H  0.74313615  0.74817564  0.65130975     0.35200
H591        H  0.66186104  0.68099051  0.64492854     0.28000
H592        H  0.70751794  0.84430861  0.86628736     0.32200
H593        H  0.60387174  0.79581559  0.84712858     0.35000
H594        H  0.69162386  0.84994611  0.66837764     0.27600
H595        H  0.70092242  0.69467111  0.64747332     0.40500
H596        H  0.78391269  0.67864544  0.76955343     0.30600
H597        H  0.80441465  0.72448915  0.73780733     0.38200
H598        H  0.55290456  0.77143720  0.76753341     0.30000
H599        H  0.70358818  0.64596812  0.83496985     0.30100
H600        H  0.67113177  0.82482732  0.86810179     0.30400
C601        C  0.45524633  0.63079075  0.69083279     0.79600
N602        N  0.45009454  0.61051150  0.66238423    -0.78700
C603        C  0.42020017  0.61327420  0.64274967     0.82000
N604        N  0.39504920  0.63722446  0.65148693    -0.78700
C605        C  0.39944146  0.65690234  0.68104271     0.82100
N606        N  0.42984932  0.65393014  0.69998530    -0.80400
C607        C  0.26457426  0.48849368  0.65853236     0.79600
N608        N  0.26555484  0.51849472  0.67689831    -0.78700
C609        C  0.29045154  0.54261205  0.66997467     0.82000
N610        N  0.31473387  0.53622672  0.64476652    -0.78700
C611        C  0.31355405  0.50701713  0.62551510     0.82100
N612        N  0.28853413  0.48313597  0.63230117    -0.80400
C613        C  0.45785060  0.35149887  0.66443586     0.79600
N614        N  0.42936983  0.35305180  0.68564602    -0.78700
C615        C  0.40111352  0.37351529  0.67917638     0.82000
N616        N  0.40159848  0.39340358  0.64932750    -0.78700
C617        C  0.42981881  0.39178318  0.62608934     0.82100
N618        N  0.45815927  0.37072343  0.63423929    -0.80400
C619        C  0.55930760  0.48769908  0.68734563     0.79600
N620        N  0.54008613  0.49117617  0.65764038    -0.78700
C621        C  0.54194746  0.51981112  0.63771257     0.82000
N622        N  0.56345547  0.54639991  0.64833819    -0.78700
C623        C  0.58208494  0.54347771  0.67940005     0.82100
N624        N  0.58000029  0.51405395  0.69792852    -0.80400
C625        C  0.46690524  0.38650774  0.33031241     0.79600
N626        N  0.46685690  0.40303944  0.36228461    -0.78700
C627        C  0.43575025  0.41666629  0.37561634     0.82000
N628        N  0.40451854  0.41175384  0.35692615    -0.78700
C629        C  0.40473235  0.39402179  0.32550939     0.82100
N630        N  0.43607817  0.38292727  0.31280206    -0.80400
C631        C  0.59536208  0.49685204  0.37441327     0.79600
N632        N  0.56647735  0.50168997  0.39473222    -0.78700
C633        C  0.55544216  0.53370297  0.40391115     0.82000
N634        N  0.57390835  0.56194966  0.39220693    -0.78700
C635        C  0.60337519  0.55701026  0.37145830     0.82100
N636        N  0.61341711  0.52463091  0.36329948    -0.80400
C637        C  0.46198538  0.68739497  0.37430313     0.79600
N638        N  0.45965638  0.65717372  0.39294584    -0.78700
C639        C  0.42904022  0.64943843  0.41129746     0.82000
N640        N  0.40093763  0.67254366  0.40991369    -0.78700
C641        C  0.40330676  0.70241363  0.39067486     0.82100
N642        N  0.43391097  0.70873938  0.37372410    -0.80400
C643        C  0.26319535  0.49205379  0.37435859     0.79600
N644        N  0.29168070  0.49551617  0.39541914    -0.78700
C645        C  0.31281539  0.52330325  0.39389899     0.82000
N646        N  0.30427832  0.54948990  0.37108874    -0.78700
C647        C  0.27402203  0.54687648  0.35061164     0.82100
N648        N  0.25435154  0.51785733  0.35226672    -0.80400
C649        C  0.57004996  0.67547526  0.48984570     0.79600
N650        N  0.54991845  0.64723615  0.49452269    -0.78700
C651        C  0.52902090  0.64430012  0.52320695     0.82000
N652        N  0.52871741  0.67007446  0.54793431    -0.78700
C653        C  0.54977213  0.69844277  0.54379713     0.82100
N654        N  0.56984593  0.70052635  0.51447836    -0.80400
C655        C  0.60836145  0.37937009  0.47527745     0.79600
N656        N  0.57763919  0.39839589  0.47700798    -0.78700
C657        C  0.56766208  0.41371200  0.50815538     0.82000
N658        N  0.58862489  0.40847706  0.53768096    -0.78700
C659        C  0.61902241  0.38852844  0.53589181     0.82100
N660        N  0.62789324  0.37495791  0.50448444    -0.80400
C661        C  0.25771336  0.64275208  0.49118636     0.79600
N662        N  0.28804597  0.62483259  0.49576953    -0.78700
C663        C  0.29298203  0.60574973  0.52498979     0.82000
N664        N  0.26651344  0.60399528  0.54979304    -0.78700
C665        C  0.23582881  0.62281489  0.54511038     0.82100
N666        N  0.23266618  0.64216551  0.51606412    -0.80400
C667        C  0.27597637  0.35377950  0.47093968     0.79600
N668        N  0.30411168  0.37619800  0.47082085    -0.78700
C669        C  0.32077250  0.38512651  0.50190505     0.82000
N670        N  0.30895877  0.37023438  0.53268246    -0.78700
C671        C  0.28081176  0.34762139  0.53205784     0.82100
N672        N  0.26513793  0.34044228  0.50133440    -0.80400
O673        O  0.84593471  0.94534824  0.98870269    -0.87100
O674        O  0.04583028  0.97200703  0.99147762    -0.87300
O675        O  0.95427536  0.91955345  0.93494615    -0.89000
O676        O  0.94692080  0.90833584  0.04769810    -0.87700
O677        O  0.93437329  0.94434577  0.09391210    -0.87300
O678        O  0.94621100  0.96515831  0.89756187    -0.88700
O679        O  0.00974265  0.92462627  0.98920161    -0.87200
O680        O  0.89373314  0.90847289  0.98406951    -0.86800
Zr681      Zr  0.94679660  0.94352804  0.99355336     2.84300
O682        O  0.97610062  0.97918555  0.03391403    -1.08700
O683        O  0.90741208  0.97773689  0.95969433    -1.09500
C684        C  0.86007697  0.91500126  0.98512599     1.06000
C685        C  0.04055274  0.93942143  0.98771579     1.05900
C686        C  0.95147093  0.93292540  0.90417838     1.08900
C687        C  0.94055781  0.91390215  0.08069151     1.06700
H688        H  0.99418924  0.97513998  0.94797221     0.32200
O689        O  0.97751921  0.98629796  0.96345262    -1.29700
H690        H  0.88996434  0.95416319  0.04068044     0.31900
O691        O  0.90368374  0.97132850  0.02865239    -1.31400
O692        O  0.03178889  0.08093859  0.00852171    -0.87100
O693        O  0.82804642  0.05996311  0.99672484    -0.88600
O694        O  0.99695200  0.02216047  0.90271094    -0.87200
O695        O  0.99149562  0.99894268  0.10123177    -0.87300
O696        O  0.87214046  0.99768020  0.09454906    -0.87000
O697        O  0.88353076  0.01241226  0.89662730    -0.86800
O698        O  0.93170292  0.11602681  0.94609890    -0.87200
O699        O  0.92830489  0.10504297  0.06931359    -0.86600
O700        O  0.94032962  0.07632505  0.90199329    -0.87700
O701        O  0.93143941  0.05819089  0.10628562    -0.86800
O702        O  0.03797292  0.02844006  0.94700330    -0.87200
O703        O  0.83847047  0.00018699  0.93475134    -0.87000
O704        O  0.83197548  0.99691291  0.04888018    -0.86600
O705        O  0.03433273  0.01157444  0.06055947    -0.87000
O706        O  0.98484766  0.11901427  0.00875334    -0.87300
O707        O  0.86443022  0.10639671  0.00693432    -0.88700
Zr708      Zr  0.00756864  0.02190726  0.00307236     2.83100
Zr709      Zr  0.86482360  0.00591741  0.99433332     2.83500
Zr710      Zr  0.93893234  0.01958379  0.92943075     2.84100
Zr711      Zr  0.93330528  0.00483413  0.07071231     2.83400
Zr712      Zr  0.92799876  0.08509922  0.00574223     2.84200
O713        O  0.89652288  0.04039213  0.03488719    -1.09200
O714        O  0.96859039  0.05564798  0.96946072    -1.08700
C715        C  0.01884416  0.11195829  0.00926889     1.05700
C716        C  0.83304667  0.09273176  0.00228165     1.08600
C717        C  0.02884153  0.02559019  0.91441085     1.06100
C718        C  0.02425881  0.00317316  0.09173149     1.06500
C719        C  0.84007238  0.99539660  0.08186011     1.06100
C720        C  0.85103995  0.00432743  0.90343033     1.05600
C721        C  0.93719219  0.10766500  0.91294139     1.06000
C722        C  0.93020490  0.09107032  0.10057602     1.05500
H723        H  0.88197596  0.06232167  0.95042296     0.32200
O724        O  0.89758643  0.04875657  0.96508601    -1.30300
H725        H  0.97865603  0.06171596  0.05653043     0.32200
O726        O  0.96533629  0.04814791  0.03986329    -1.31700
O727        O  0.41375188  0.60530070  0.58106512    -0.87100
O728        O  0.43764060  0.41057729  0.56381166    -0.87300
O729        O  0.37245976  0.50489673  0.60907924    -0.89000
O730        O  0.48547215  0.51212351  0.61361249    -0.87700
O731        O  0.52984593  0.52667346  0.57562830    -0.87300
O732        O  0.33003510  0.49883729  0.56612066    -0.88700
O733        O  0.42960973  0.44983861  0.60844548    -0.87200
O734        O  0.42328067  0.55873460  0.61682053    -0.86800
Zr735      Zr  0.42968866  0.50644964  0.58165054     2.84300
O736        O  0.47040674  0.47866613  0.54457171    -1.08700
O737        O  0.38964553  0.53951850  0.54917115    -1.09500
C738        C  0.41764791  0.59107499  0.61147452     1.06000
C739        C  0.43274165  0.41870223  0.59716082     1.05900
C740        C  0.34023553  0.50216436  0.59840363     1.08900
C741        C  0.51774778  0.52076038  0.60684684     1.06700
H742        H  0.38557599  0.45385509  0.55486028     0.32200
O743        O  0.39927673  0.47042102  0.54197577    -1.29700
H744        H  0.47231980  0.56419683  0.56942922     0.31900
O745        O  0.46016712  0.54978216  0.55262251    -1.31400
O746        O  0.43914487  0.42419355  0.43987899    -0.87100
O747        O  0.41955458  0.62153880  0.46749480    -0.88600
O748        O  0.33521707  0.44524806  0.50376423    -0.87200
O749        O  0.53944345  0.46943608  0.51446331    -0.87300
O750        O  0.52031202  0.58393132  0.52035684    -0.87000
O751        O  0.32041849  0.55175582  0.52185608    -0.86800
O752        O  0.37461131  0.52987092  0.41020338    -0.87200
O753        O  0.49324511  0.53278744  0.41655108    -0.86600
O754        O  0.33327016  0.51364340  0.45104486    -0.87700
O755        O  0.53396448  0.53340317  0.46172206    -0.86800
O756        O  0.38230819  0.40746717  0.50237094    -0.87200
O757        O  0.35566478  0.59973661  0.52480423    -0.87000
O758        O  0.47200567  0.61968948  0.52800960    -0.86600
O759        O  0.50345525  0.42257513  0.50454557    -0.87000
O760        O  0.43391329  0.47186550  0.40419872    -0.87300
O761        O  0.43305656  0.58678459  0.42056283    -0.88700
Zr762      Zr  0.43950809  0.44232389  0.50431515     2.83100
Zr763      Zr  0.41937491  0.58392994  0.52051511     2.83500
Zr764      Zr  0.35982968  0.50402311  0.50909117     2.84100
Zr765      Zr  0.50212124  0.52282815  0.51635454     2.83400
Zr766      Zr  0.43266522  0.52474626  0.44106081     2.84200
O767        O  0.46193380  0.55739703  0.48393220    -1.09200
O768        O  0.40219510  0.47980279  0.47115710    -1.08700
C769        C  0.43628954  0.43882395  0.40891857     1.05900
C770        C  0.42698422  0.61710013  0.43443891     1.08600
C771        C  0.34810220  0.41425706  0.50267365     1.06100
C772        C  0.53461776  0.43663199  0.50938763     1.06500
C773        C  0.50565864  0.61394280  0.52504601     1.06100
C774        C  0.32517504  0.58426705  0.52556593     1.05600
C775        C  0.34231928  0.52355669  0.41991777     1.06000
C776        C  0.52539116  0.53527715  0.42892613     1.05500
H777        H  0.37386509  0.56345577  0.46713713     0.32200
O778        O  0.39025822  0.54875192  0.47964610    -1.30300
H779        H  0.48736753  0.47771823  0.45983149     0.32200
O780        O  0.47033849  0.48824262  0.47547237    -1.31700
C781        C  0.55519175  0.74556434  0.63252713    -0.21000
C782        C  0.58447879  0.76702190  0.62636210    -0.07500
C783        C  0.59534788  0.77205227  0.59154065     0.13300
C784        C  0.58060265  0.75171381  0.56472975    -0.21000
C785        C  0.55544918  0.72564340  0.57167157    -0.07500
C786        C  0.54037268  0.72490643  0.60570543     0.13300
C787        C  0.50984734  0.70177540  0.61466749    -0.24400
H788        H  0.54647554  0.74201771  0.65934901     0.14600
H789        H  0.59112808  0.75482717  0.53853273     0.14600
C790        C  0.62460554  0.79660703  0.58232986    -0.24300
H791        H  0.50047358  0.70611104  0.64193915     0.04900
H792        H  0.51805003  0.67448186  0.61258048     0.08100
H793        H  0.48720320  0.70693640  0.59665955     0.08100
H794        H  0.64751824  0.78211977  0.57137098     0.08100
H795        H  0.63388335  0.81165204  0.60534737     0.08100
H796        H  0.61477687  0.81508814  0.56235035     0.04800
C797        C  0.63165824  0.60437147  0.74143488    -0.21000
C798        C  0.66164297  0.61282304  0.72158451    -0.07500
C799        C  0.66541589  0.59737225  0.68783894     0.13300
C800        C  0.63794628  0.57695725  0.67379090    -0.21000
C801        C  0.60726956  0.56988211  0.69301928    -0.07500
C802        C  0.60489128  0.58271902  0.72793219     0.13300
C803        C  0.57357866  0.57450065  0.75087154    -0.24400
H804        H  0.62820761  0.61613773  0.76702997     0.14600
H805        H  0.64115286  0.56541294  0.64804717     0.14600
C806        C  0.69847947  0.60118172  0.66611965    -0.24300
H807        H  0.57478008  0.58845757  0.77633316     0.04900
H808        H  0.57308729  0.54663161  0.75674684     0.08100
H809        H  0.54855438  0.58196736  0.73739196     0.08100
H810        H  0.71997649  0.61484042  0.68027143     0.08100
H811        H  0.69204465  0.61518027  0.64155446     0.08100
H812        H  0.70898846  0.57530678  0.65922821     0.04800
C813        C  0.52889642  0.65902111  0.75060347    -0.21000
C814        C  0.55573456  0.66445632  0.72573349    -0.07500
C815        C  0.55169695  0.65035140  0.69143886     0.13300
C816        C  0.51958819  0.63474884  0.68236602    -0.21000
C817        C  0.49113761  0.63399845  0.70590304    -0.07500
C818        C  0.49675770  0.64370169  0.74113157     0.13300
C819        C  0.46931223  0.63840869  0.76913610    -0.24400
H820        H  0.53238090  0.66786312  0.77740555     0.14600
H821        H  0.51553491  0.62623318  0.65554326     0.14600
C822        C  0.57940475  0.65364019  0.66309192    -0.24300
H823        H  0.48127071  0.62359394  0.79109253     0.04900
H824        H  0.44622395  0.62354317  0.75943406     0.08100
H825        H  0.46000339  0.66367794  0.77923022     0.08100
H826        H  0.60456696  0.64134516  0.67151360     0.08100
H827        H  0.58406552  0.68110555  0.65719101     0.08100
H828        H  0.57120582  0.64093774  0.63822602     0.04800
C829        C  0.66962406  0.35294954  0.55989402    -0.21000
C830        C  0.64280365  0.37791238  0.56671122    -0.07500
C831        C  0.64032161  0.39024016  0.60174060     0.13300
C832        C  0.66198001  0.37547480  0.62859480    -0.21000
C833        C  0.68680278  0.34898585  0.62148305    -0.07500
C834        C  0.69120257  0.33866175  0.58634856     0.13300
C835        C  0.71822015  0.31145750  0.57677694    -0.24400
H836        H  0.67339039  0.34316612  0.53355031     0.14600
H837        H  0.65782652  0.38310641  0.65565726     0.14600
C838        C  0.61450028  0.41822051  0.61120874    -0.24300
H839        H  0.71883836  0.30646882  0.54806852     0.04900
H840        H  0.71196766  0.28688743  0.58999398     0.08100
H841        H  0.74505146  0.32001569  0.58508466     0.08100
H842        H  0.58718561  0.40916142  0.60591855     0.08100
H843        H  0.61990640  0.44148567  0.59538225     0.08100
H844        H  0.61646654  0.42542611  0.63937267     0.04800
C845        C  0.52561476  0.31026471  0.72650754    -0.21000
C846        C  0.53586531  0.28074482  0.70786260    -0.07500
C847        C  0.52080179  0.27536995  0.67389559     0.13300
C848        C  0.49777134  0.30026175  0.65905270    -0.21000
C849        C  0.48837427  0.33021870  0.67736328    -0.07500
C850        C  0.50207685  0.33475110  0.71199731     0.13300
C851        C  0.49253699  0.36535409  0.73460665    -0.24400
H852        H  0.53730846  0.31516650  0.75208054     0.14600
H853        H  0.48577894  0.29556987  0.63358667     0.14600
C854        C  0.52745197  0.24254094  0.65372371    -0.24300
H855        H  0.51693898  0.37747756  0.74513934     0.04900
H856        H  0.47635183  0.35670807  0.75714047     0.08100
H857        H  0.47770026  0.38550974  0.72013719     0.08100
H858        H  0.52039159  0.22018463  0.67024531     0.08100
H859        H  0.55560612  0.24043656  0.64569619     0.08100
H860        H  0.51112228  0.24129052  0.62941236     0.04800
C861        C  0.58140485  0.45362406  0.73730319    -0.21000
C862        C  0.56297215  0.45408069  0.70519434    -0.07500
C863        C  0.55476663  0.42240651  0.68866013     0.13300
C864        C  0.57105363  0.39240567  0.70104604    -0.21000
C865        C  0.59366924  0.39275195  0.73046813    -0.07500
C866        C  0.59714880  0.42357541  0.75011243     0.13300
C867        C  0.61936871  0.42620563  0.78304301    -0.24400
H868        H  0.58591654  0.47753057  0.75126233     0.14600
H869        H  0.56673411  0.36853589  0.68696205     0.14600
C870        C  0.52954625  0.41941137  0.65792215    -0.24300
H871        H  0.61904533  0.45257352  0.79430758     0.04900
H872        H  0.64739675  0.41973611  0.77699366     0.08100
H873        H  0.60891920  0.40870686  0.80341956     0.08100
H874        H  0.53982397  0.43293152  0.63464481     0.08100
H875        H  0.50321340  0.43015394  0.66522522     0.08100
H876        H  0.52569883  0.39224530  0.64991400     0.04800
C877        C  0.15750285  0.66323018  0.59117002    -0.21000
C878        C  0.16699962  0.65777585  0.62611903    -0.07500
C879        C  0.19125268  0.63087125  0.63373458     0.13300
C880        C  0.21225742  0.61663444  0.60671832    -0.21000
C881        C  0.20667557  0.62639536  0.57174890    -0.07500
C882        C  0.17515617  0.64573546  0.56399436     0.13300
C883        C  0.15978552  0.64935526  0.52753911    -0.24400
H884        H  0.13765113  0.68255699  0.58487458     0.14600
H885        H  0.23384433  0.59932019  0.61320649     0.14600
C886        C  0.19532096  0.61814527  0.67066806    -0.24300
H887        H  0.13060995  0.64551551  0.52843440     0.04900
H888        H  0.17007580  0.62948392  0.50922941     0.08100
H889        H  0.16514892  0.67545360  0.51722376     0.08100
H890        H  0.21549084  0.59734047  0.67254170     0.08100
H891        H  0.16956111  0.60777744  0.67972506     0.08100
H892        H  0.20304127  0.63941550  0.68828693     0.04800
C893        C  0.33577306  0.71547873  0.73175284    -0.21000
C894        C  0.32829230  0.74097583  0.70672952    -0.07500
C895        C  0.34552326  0.73896470  0.67364855     0.13300
C896        C  0.36782482  0.71084496  0.66593142    -0.21000
C897        C  0.37402732  0.68476300  0.69037292    -0.07500
C898        C  0.35847901  0.68754007  0.72406601     0.13300
C899        C  0.36447191  0.66034689  0.75149560    -0.24400
H900        H  0.32230613  0.71638651  0.75682068     0.14600
H901        H  0.38081457  0.70932856  0.64063487     0.14600
C902        C  0.34116707  0.76665333  0.64638147    -0.24300
H903        H  0.39287882  0.65955024  0.75907558     0.04900
H904        H  0.35638728  0.63489059  0.74102296     0.08100
H905        H  0.34885743  0.66558951  0.77561241     0.08100
H906        H  0.31394284  0.76645144  0.63527969     0.08100
H907        H  0.35978794  0.76289706  0.62414733     0.08100
H908        H  0.34674347  0.79213321  0.65831384     0.04800
C909        C  0.28800275  0.63885124  0.68581475    -0.21000
C910        C  0.27012865  0.64051049  0.71818761    -0.07500
C911        C  0.26622253  0.60971520  0.73763581     0.13300
C912        C  0.27568091  0.57823217  0.72205679    -0.21000
C913        C  0.28909743  0.57651838  0.68781925    -0.07500
C914        C  0.29727733  0.60745984  0.67023320     0.13300
C915        C  0.31352704  0.60802612  0.63408631    -0.24400
H916        H  0.29274200  0.66222106  0.67125523     0.14600
H917        H  0.27085334  0.55456753  0.73608543     0.14600
C918        C  0.25079387  0.60907378  0.77403839    -0.24300
H919        H  0.31675712  0.63457617  0.62406778     0.04900
H920        H  0.29647065  0.59397402  0.61518553     0.08100
H921        H  0.34021148  0.59589997  0.63482332     0.08100
H922        H  0.22233191  0.61642408  0.77313614     0.08100
H923        H  0.26577331  0.62681695  0.79145449     0.08100
H924        H  0.25237799  0.58305252  0.78581859     0.04800
C925        C  0.27276622  0.28196321  0.60568803    -0.21000
C926        C  0.23541186  0.27866837  0.60971178    -0.07500
C927        C  0.21354918  0.29859406  0.58742484     0.13300
C928        C  0.22933246  0.32199473  0.56381344    -0.21000
C929        C  0.26654905  0.32752280  0.56246105    -0.07500
C930        C  0.28836340  0.30659629  0.58355218     0.13300
C931        C  0.32818628  0.30938354  0.58205978    -0.24400
H932        H  0.29033603  0.26588342  0.62118344     0.14600
H933        H  0.21224564  0.33667101  0.54641989     0.14600
C934        C  0.17372706  0.29602304  0.58878179    -0.24300
H935        H  0.34146570  0.29085138  0.59997261     0.04900
H936        H  0.33634474  0.33565459  0.59001139     0.08100
H937        H  0.33752547  0.30406978  0.55497253     0.08100
H938        H  0.16408577  0.30376657  0.61515026     0.08100
H939        H  0.16554535  0.26920996  0.58306910     0.08100
H940        H  0.16073347  0.31307007  0.56920870     0.04800
C941        C  0.23472196  0.43395725  0.64332127    -0.21000
C942        C  0.23924168  0.46070902  0.66774932    -0.07500
C943        C  0.22230229  0.45806437  0.70095216     0.13300
C944        C  0.20550051  0.42719104  0.70991034    -0.21000
C945        C  0.20575025  0.39898350  0.68702761    -0.07500
C946        C  0.21873614  0.40304604  0.65273746     0.13300
C947        C  0.21667279  0.37458764  0.62619892    -0.24400
H948        H  0.24584411  0.43622576  0.61726234     0.14600
H949        H  0.19471525  0.42409506  0.73603499     0.14600
C950        C  0.22312141  0.48639134  0.72803050    -0.24300
H951        H  0.22588875  0.38320767  0.60006331     0.04900
H952        H  0.18877326  0.36593967  0.62345189     0.08100
H953        H  0.23378307  0.35280990  0.63446203     0.08100
H954        H  0.21086508  0.51007457  0.71710702     0.08100
H955        H  0.25089823  0.49136370  0.73633114     0.08100
H956        H  0.20797183  0.47957516  0.75193186     0.04800
C957        C  0.38038175  0.35989668  0.74029865    -0.21000
C958        C  0.37163484  0.37270871  0.70650510    -0.07500
C959        C  0.33523970  0.37927197  0.69965448     0.13300
C960        C  0.30919108  0.36928646  0.72457925    -0.21000
C961        C  0.31811428  0.35158043  0.75577634    -0.07500
C962        C  0.35446993  0.34886912  0.76437358     0.13300
C963        C  0.36686304  0.33249593  0.79802133    -0.24400
H964        H  0.40800783  0.35611932  0.74740160     0.14600
H965        H  0.28138004  0.37216146  0.71791927     0.14600
C966        C  0.32340491  0.39435073  0.66526820    -0.24300
H967        H  0.38361987  0.35094552  0.81287506     0.04900
H968        H  0.38286020  0.30917071  0.79201669     0.08100
H969        H  0.34445687  0.32509168  0.81514011     0.08100
H970        H  0.33168997  0.37732653  0.64332110     0.08100
H971        H  0.33517772  0.42020851  0.66192458     0.08100
H972        H  0.29415625  0.39709463  0.66402067     0.04800
C973        C  0.10397495  0.23935850  0.90474204    -0.21000
C974        C  0.14166380  0.23938299  0.90339705    -0.07500
C975        C  0.15991349  0.21639965  0.92596193     0.13300
C976        C  0.14052608  0.19522560  0.94904495    -0.21000
C977        C  0.10305314  0.19483948  0.94972380    -0.07500
C978        C  0.08467478  0.21730442  0.92702237     0.13300
C979        C  0.04470565  0.21875067  0.92692762    -0.24400
H980        H  0.08921417  0.25653376  0.88770022     0.14600
H981        H  0.15489183  0.17889936  0.96727224     0.14600
C982        C  0.19972118  0.21323474  0.92549400    -0.24300
H983        H  0.03434302  0.23770231  0.90766481     0.04900
H984        H  0.03493016  0.22621652  0.95333910     0.08100
H985        H  0.03395847  0.19313419  0.91980758     0.08100
H986        H  0.21186860  0.23833716  0.93218327     0.08100
H987        H  0.20862328  0.20476109  0.89914222     0.08100
H988        H  0.20949780  0.19400347  0.94475948     0.04800
C989        C  0.62484659  0.69656357  0.46254380    -0.21000
C990        C  0.59218612  0.67988461  0.45838331    -0.07500
C991        C  0.58027305  0.67114007  0.42436460     0.13300
C992        C  0.59924785  0.68297589  0.39540426    -0.21000
C993        C  0.63028496  0.70269998  0.39943163    -0.07500
C994        C  0.64457179  0.70738649  0.43362411     0.13300
C995        C  0.68039336  0.72334639  0.44040592    -0.24400
H996        H  0.63463797  0.70188586  0.48880004     0.14600
H997        H  0.58874027  0.67777061  0.36942400     0.14600
C998        C  0.54679155  0.65095196  0.41813073    -0.24300
H999        H  0.68813023  0.72175177  0.46851988     0.04900
H1000       H  0.67996609  0.75096071  0.43342623     0.08100
H1001       H  0.70104881  0.70953768  0.42504995     0.08100
H1002       H  0.52386402  0.66438251  0.43027064     0.08100
H1003       H  0.54965104  0.62493895  0.42963379     0.08100
H1004       H  0.54099376  0.64762801  0.38972038     0.04800
C1005       C  0.53663933  0.74643898  0.34343308    -0.21000
C1006       C  0.53690145  0.74032696  0.30695665    -0.07500
C1007       C  0.51471692  0.71345763  0.29410780     0.13300
C1008       C  0.49421076  0.69347196  0.31749632    -0.21000
C1009       C  0.49369168  0.69971852  0.35388939    -0.07500
C1010       C  0.51494250  0.72728142  0.36661590     0.13300
C1011       C  0.51450600  0.73792768  0.40466185    -0.24400
H1012       H  0.55379796  0.76615949  0.35415648     0.14600
H1013       H  0.47637376  0.67430923  0.30676357     0.14600
C1014       C  0.51063017  0.70612973  0.25541011    -0.24300
H1015       H  0.54178720  0.73634064  0.41567392     0.04900
H1016       H  0.50489318  0.76486219  0.40686169     0.08100
H1017       H  0.49711562  0.72156055  0.42088473     0.08100
H1018       H  0.52397311  0.68144283  0.24884917     0.08100
H1019       H  0.52154138  0.72681379  0.23879376     0.08100
H1020       H  0.48202351  0.70414281  0.24856550     0.04800
C1021       C  0.64909930  0.60469554  0.36953196    -0.21000
C1022       C  0.62283901  0.58483274  0.35251035    -0.07500
C1023       C  0.62201127  0.58497167  0.31535893     0.13300
C1024       C  0.64620341  0.60496887  0.29653604    -0.21000
C1025       C  0.67139008  0.62624913  0.31308692    -0.07500
C1026       C  0.67332285  0.62537717  0.35029829     0.13300
C1027       C  0.70107959  0.64564796  0.36971444    -0.24400
H1028       H  0.65135380  0.60327450  0.39783996     0.14600
H1029       H  0.64436114  0.60507714  0.26813385     0.14600
C1030       C  0.59506753  0.56417353  0.29503213    -0.24300
H1031       H  0.69846994  0.64283966  0.39857967     0.04900
H1032       H  0.69879073  0.67327478  0.36330345     0.08100
H1033       H  0.72786733  0.63640622  0.36198176     0.08100
H1034       H  0.56788642  0.57106053  0.30385752     0.08100
H1035       H  0.59969504  0.53629430  0.29894676     0.08100
H1036       H  0.59654091  0.56905234  0.26637880     0.04800
C1037       C  0.66644968  0.34795376  0.39965424    -0.21000
C1038       C  0.65932034  0.31247034  0.39984990    -0.07500
C1039       C  0.63322240  0.30047077  0.42368724     0.13300
C1040       C  0.61355745  0.32392797  0.44421655    -0.21000
C1041       C  0.62052849  0.35927527  0.44404883    -0.07500
C1042       C  0.64836005  0.37110326  0.42233923     0.13300
C1043       C  0.65984182  0.40801213  0.42415967    -0.24400
H1044       H  0.68603872  0.35769170  0.38154577     0.14600
H1045       H  0.59438225  0.31409624  0.46275488     0.14600
C1046       C  0.62663112  0.26277441  0.42974692    -0.24300
H1047       H  0.68107734  0.41358671  0.40490961     0.04900
H1048       H  0.67019941  0.41387349  0.45081828     0.08100
H1049       H  0.63687624  0.42510871  0.41873243     0.08100
H1050       H  0.64556302  0.24587817  0.41558599     0.08100
H1051       H  0.59914139  0.25625806  0.42160560     0.08100
H1052       H  0.62984379  0.25704964  0.45812777     0.04800
C1053       C  0.59799826  0.40208481  0.34693424    -0.21000
C1054       C  0.63077953  0.40095752  0.32935231    -0.07500
C1055       C  0.65310517  0.43018408  0.33091063     0.13300
C1056       C  0.64077442  0.46007018  0.34701592    -0.21000
C1057       C  0.60703970  0.46222934  0.36232699    -0.07500
C1058       C  0.58595931  0.43215136  0.36382319     0.13300
C1059       C  0.55102338  0.43104246  0.38293059    -0.24400
H1060       H  0.58134234  0.37947559  0.34704482     0.14600
H1061       H  0.65796581  0.48228376  0.34725545     0.14600
C1062       C  0.69044461  0.43065111  0.31657147    -0.24300
H1063       H  0.53896928  0.40509365  0.38175855     0.04900
H1064       H  0.53185976  0.44938334  0.37099304     0.08100
H1065       H  0.55518514  0.43744381  0.41106170     0.08100
H1066       H  0.68998657  0.42881334  0.28751081     0.08100
H1067       H  0.70609212  0.40923419  0.32813876     0.08100
H1068       H  0.70457164  0.45480340  0.32320241     0.04800
C1069       C  0.54083690  0.35651635  0.26840548    -0.21000
C1070       C  0.53757562  0.32046814  0.27086932    -0.07500
C1071       C  0.51309370  0.30749130  0.29578889     0.13300
C1072       C  0.49447098  0.33016729  0.31821727    -0.21000
C1073       C  0.49730277  0.36602538  0.31561765    -0.07500
C1074       C  0.52026054  0.37923921  0.28960893     0.13300
C1075       C  0.52212256  0.41733937  0.28345973    -0.24400
H1076       H  0.55947442  0.36701313  0.24978028     0.14600
H1077       H  0.47518837  0.31978970  0.33630684     0.14600
C1078       C  0.50405758  0.26976507  0.29714236    -0.24300
H1079       H  0.54125684  0.42368694  0.26240207     0.04900
H1080       H  0.53067256  0.43055393  0.30785399     0.08100
H1081       H  0.49558074  0.42726921  0.27558117     0.08100
H1082       H  0.52699037  0.25414538  0.30600511     0.08100
H1083       H  0.49551703  0.26090001  0.27071579     0.08100
H1084       H  0.48199650  0.26468995  0.31562448     0.04800
C1085       C  0.24051066  0.66259443  0.39610469    -0.21000
C1086       C  0.22286381  0.69435618  0.39913817    -0.07500
C1087       C  0.21952485  0.71013765  0.43244009     0.13300
C1088       C  0.23259983  0.69298559  0.46188435    -0.21000
C1089       C  0.24972867  0.66110711  0.45880905    -0.07500
C1090       C  0.25446918  0.64595119  0.42553390     0.13300
C1091       C  0.27393042  0.61242096  0.42076707    -0.24400
H1092       H  0.24368271  0.65086552  0.37046079     0.14600
H1093       H  0.22944212  0.70452235  0.48764402     0.14600
C1094       C  0.20355454  0.74541992  0.43727363    -0.24300
H1095       H  0.27507409  0.60527349  0.39273208     0.04900
H1096       H  0.26036397  0.59163931  0.43529320     0.08100
H1097       H  0.30174456  0.61479812  0.43011546     0.08100
H1098       H  0.17498432  0.74507019  0.43014330     0.08100
H1099       H  0.21782726  0.76418990  0.42069910     0.08100
H1100       H  0.20553311  0.75436887  0.46492655     0.04800
C1101       C  0.28002082  0.58606204  0.29845637    -0.21000
C1102       C  0.26020636  0.57518696  0.32743357    -0.07500
C1103       C  0.22490933  0.58795159  0.33100998     0.13300
C1104       C  0.21130527  0.61225993  0.30697198    -0.21000
C1105       C  0.23125237  0.62373945  0.27834310    -0.07500
C1106       C  0.26586230  0.60952124  0.27361008     0.13300
C1107       C  0.28735857  0.61741368  0.24136790    -0.24400
H1108       H  0.30626570  0.57519667  0.29453627     0.14600
H1109       H  0.18505840  0.62304071  0.31113225     0.14600
C1110       C  0.20130906  0.57652505  0.36059845    -0.24300
H1111       H  0.31217767  0.60190000  0.24039919     0.04900
H1112       H  0.29515553  0.64477148  0.24086753     0.08100
H1113       H  0.27155207  0.61133416  0.21749871     0.08100
H1114       H  0.21466921  0.58071509  0.38620384     0.08100
H1115       H  0.19480461  0.54894666  0.35755873     0.08100
H1116       H  0.17579287  0.59095854  0.36098488     0.04800
C1117       C  0.38154588  0.75728165  0.36301589    -0.21000
C1118       C  0.37356351  0.72838745  0.38422377    -0.07500
C1119       C  0.33788436  0.72502709  0.39519166     0.13300
C1120       C  0.31115584  0.74638111  0.38017123    -0.21000
C1121       C  0.31921545  0.77155065  0.35493358    -0.07500
C1122       C  0.35508243  0.77826291  0.34806243     0.13300
C1123       C  0.36538039  0.80515692  0.32171115    -0.24400
H1124       H  0.40869379  0.76236855  0.35554390     0.14600
H1125       H  0.28353068  0.74141765  0.38592960     0.14600
C1126       C  0.32760704  0.69893372  0.42204847    -0.24300
H1127       H  0.39414125  0.81114605  0.32331975     0.04900
H1128       H  0.35034912  0.82930359  0.32669198     0.08100
H1129       H  0.35930159  0.79581635  0.29479094     0.08100
H1130       H  0.34408884  0.70218454  0.44604127     0.08100
H1131       H  0.33105117  0.67260524  0.41131260     0.08100
H1132       H  0.29960176  0.70251422  0.42982861     0.04800
C1133       C  0.10292517  0.95357298  0.21680688    -0.21000
C1134       C  0.11053928  0.95299029  0.18078155    -0.07500
C1135       C  0.14029950  0.93368104  0.16926477     0.13300
C1136       C  0.16055954  0.91438045  0.19363951    -0.21000
C1137       C  0.15251987  0.91461660  0.22966633    -0.07500
C1138       C  0.12344829  0.93492563  0.24122081     0.13300
C1139       C  0.11351425  0.93755705  0.27942087    -0.24400
H1140       H  0.08147513  0.96981902  0.22622020     0.14600
H1141       H  0.18188324  0.89795409  0.18430145     0.14600
C1142       C  0.15087677  0.93380378  0.13123357    -0.24300
H1143       H  0.13253654  0.92393061  0.29685546     0.04900
H1144       H  0.08667213  0.92662115  0.28333197     0.08100
H1145       H  0.11319607  0.96497763  0.28758251     0.08100
H1146       H  0.17422486  0.91692607  0.12631198     0.08100
H1147       H  0.12844930  0.92459742  0.11480656     0.08100
H1148       H  0.15781890  0.96029050  0.12316621     0.04800
C1149       C  0.22085129  0.34118826  0.43768573    -0.21000
C1150       C  0.25824004  0.33851755  0.43961021    -0.07500
C1151       C  0.27464856  0.31080929  0.42207929     0.13300
C1152       C  0.25380687  0.28671928  0.40368694    -0.21000
C1153       C  0.21644108  0.28952717  0.40086488    -0.07500
C1154       C  0.19981321  0.31734048  0.41867839     0.13300
C1155       C  0.16009703  0.32183674  0.41876942    -0.24400
H1156       H  0.20783899  0.36116124  0.45290502     0.14600
H1157       H  0.26713410  0.26514832  0.39134709     0.14600
C1158       C  0.31426467  0.30558521  0.42427950    -0.24300
H1159       H  0.15176322  0.34401762  0.43527639     0.04900
H1160       H  0.14741882  0.29844983  0.42944795     0.08100
H1161       H  0.15019715  0.32670785  0.39189478     0.08100
H1162       H  0.32251495  0.30178570  0.45200914     0.08100
H1163       H  0.32786440  0.32849433  0.41361242     0.08100
H1164       H  0.32307921  0.28276480  0.40897431     0.04800
C1165       C  0.34267437  0.34023980  0.26685183    -0.21000
C1166       C  0.31285592  0.36133354  0.26235183    -0.07500
C1167       C  0.31298969  0.39400938  0.27927515     0.13300
C1168       C  0.34289069  0.40474282  0.29944139    -0.21000
C1169       C  0.37207154  0.38267239  0.30524810    -0.07500
C1170       C  0.37110795  0.34948917  0.28899277     0.13300
C1171       C  0.39824202  0.32185841  0.29724069    -0.24400
H1172       H  0.34185550  0.31440852  0.25607362     0.14600
H1173       H  0.34306877  0.43007841  0.31128887     0.14600
C1174       C  0.28076377  0.41697463  0.27716014    -0.24300
H1175       H  0.38970677  0.29619248  0.28767880     0.04900
H1176       H  0.40203925  0.31985924  0.32608396     0.08100
H1177       H  0.42380601  0.32740840  0.28422287     0.08100
H1178       H  0.25751012  0.40392419  0.28877299     0.08100
H1179       H  0.27487507  0.42302421  0.24928779     0.08100
H1180       H  0.28481974  0.44149435  0.29161109     0.04800
C1181       C  0.24299116  0.39750222  0.36740224    -0.21000
C1182       C  0.20812134  0.39883891  0.35413889    -0.07500
C1183       C  0.18907601  0.43019288  0.35598675     0.13300
C1184       C  0.20741276  0.46028115  0.36449086    -0.21000
C1185       C  0.24362393  0.45941398  0.37325792    -0.07500
C1186       C  0.26101768  0.42726129  0.37718359     0.13300
C1187       C  0.29921486  0.42374113  0.38902119    -0.24400
H1188       H  0.25748082  0.37336865  0.36747180     0.14600
H1189       H  0.19343915  0.48468784  0.36359845     0.14600
C1190       C  0.14970850  0.43296983  0.34941385    -0.24300
H1191       H  0.30832423  0.39654380  0.38917128     0.04900
H1192       H  0.30216496  0.43367977  0.41621889     0.08100
H1193       H  0.31689605  0.43798310  0.37105487     0.08100
H1194       H  0.13707404  0.44700888  0.37155436     0.08100
H1195       H  0.13662861  0.40760930  0.34801009     0.08100
H1196       H  0.14466201  0.44735094  0.32477999     0.04800
C1197       C  0.08510428  0.22854610  0.08031529    -0.21000
C1198       C  0.09857433  0.19542654  0.07441306    -0.07500
C1199       C  0.13252570  0.18721779  0.08839159     0.13300
C1200       C  0.15149345  0.21183622  0.10855282    -0.21000
C1201       C  0.13837094  0.24549166  0.11337897    -0.07500
C1202       C  0.10483502  0.25379956  0.09811236     0.13300
C1203       C  0.08924760  0.28961715  0.09900345    -0.24400
H1204       H  0.06018959  0.23585907  0.06795830     0.14600
H1205       H  0.17640266  0.20461210  0.12088007     0.14600
C1206       C  0.14911836  0.15267434  0.08104783    -0.24300
H1207       H  0.08255440  0.29780814  0.07187723     0.04900
H1208       H  0.10783583  0.30902681  0.10967666     0.08100
H1209       H  0.06460858  0.28977825  0.11489813     0.08100
H1210       H  0.15348873  0.14955946  0.05241985     0.08100
H1211       H  0.13125458  0.13199955  0.09009851     0.08100
H1212       H  0.17509070  0.14967171  0.09463722     0.04800
C1213       C  0.10695572  0.13454803  0.16201188    -0.21000
C1214       C  0.14170061  0.13550631  0.17578405    -0.07500
C1215       C  0.16320376  0.10549080  0.17331213     0.13300
C1216       C  0.14813400  0.07502839  0.16069805    -0.21000
C1217       C  0.11250052  0.07356177  0.15002712    -0.07500
C1218       C  0.09219773  0.10424530  0.14876096     0.13300
C1219       C  0.05470748  0.10556067  0.13463095    -0.24400
H1220       H  0.09055779  0.15749433  0.16243337     0.14600
H1221       H  0.16410831  0.05176609  0.16019446     0.14600
C1222       C  0.20181615  0.10462923  0.18402794    -0.24300
H1223       H  0.04315704  0.13184229  0.13612532     0.04900
H1224       H  0.03736147  0.08833532  0.15001769     0.08100
H1225       H  0.05447919  0.09785579  0.10654556     0.08100
H1226       H  0.20442926  0.10833563  0.21280259     0.08100
H1227       H  0.21459202  0.07960107  0.17759643     0.08100
H1228       H  0.21656221  0.12487356  0.16983994     0.04800
C1229       C  0.85423294  0.14575476  0.22945881    -0.21000
C1230       C  0.86696951  0.15540031  0.19612597    -0.07500
C1231       C  0.85669433  0.18755208  0.18275700     0.13300
C1232       C  0.83633641  0.20990420  0.20348270    -0.21000
C1233       C  0.82176241  0.20031600  0.23616498    -0.07500
C1234       C  0.83074169  0.16720797  0.24901728     0.13300
C1235       C  0.81647609  0.15463191  0.28339395    -0.24400
H1236       H  0.86323980  0.12161000  0.24050688     0.14600
H1237       H  0.83204078  0.23548221  0.19358697     0.14600
C1238       C  0.86801327  0.19890365  0.14665177    -0.24300
H1239       H  0.82667335  0.12855712  0.28977798     0.04900
H1240       H  0.78706439  0.15332230  0.28207552     0.08100
H1241       H  0.82459502  0.17233600  0.30485083     0.08100
H1242       H  0.85734989  0.18079537  0.12670733     0.08100
H1243       H  0.89733325  0.19928360  0.14459521     0.08100
H1244       H  0.85789426  0.22500297  0.14024233     0.04800
C1245       C  0.01919791  0.14159333  0.21486149    -0.21000
C1246       C  0.99299807  0.15983864  0.19594754    -0.07500
C1247       C  0.99173253  0.19603223  0.20006622     0.13300
C1248       C  0.01481895  0.21256665  0.22366541    -0.21000
C1249       C  0.04114117  0.19480130  0.24279234    -0.07500
C1250       C  0.04367368  0.15864170  0.23758051     0.13300
C1251       C  0.07231168  0.13794274  0.25532033    -0.24400
H1252       H  0.02000522  0.11385376  0.21253906     0.14600
H1253       H  0.01259445  0.24019463  0.22669327     0.14600
C1254       C  0.96564426  0.21776074  0.17962696    -0.24300
H1255       H  0.07076599  0.11030393  0.24813905     0.04900
H1256       H  0.06966548  0.14020410  0.28422662     0.08100
H1257       H  0.09872789  0.14738406  0.24722518     0.08100
H1258       H  0.93828582  0.21292569  0.18880756     0.08100
H1259       H  0.96775246  0.21176834  0.15119474     0.08100
H1260       H  0.97072350  0.24565175  0.18311850     0.04800
C1261       C  0.71419890  0.93165259  0.15125502    -0.21000
C1262       C  0.74683615  0.94527189  0.16288736    -0.07500
C1263       C  0.75650591  0.94000907  0.19827751     0.13300
C1264       C  0.73407113  0.92138043  0.22072014    -0.21000
C1265       C  0.70183989  0.90658427  0.20925003    -0.07500
C1266       C  0.69177824  0.91233468  0.17370906     0.13300
C1267       C  0.65727069  0.89900030  0.15924935    -0.24400
H1268       H  0.70562349  0.93714223  0.12467560     0.14600
H1269       H  0.74196854  0.91848486  0.24788648     0.14600
C1270       C  0.79030117  0.95511909  0.21282944    -0.24300
H1271       H  0.65312874  0.90680233  0.13152694     0.04900
H1272       H  0.63482167  0.90941348  0.17487283     0.08100
H1273       H  0.65704620  0.87058685  0.15997204     0.08100
H1274       H  0.78934529  0.98356982  0.21098977     0.08100
H1275       H  0.81333092  0.94529832  0.19762719     0.08100
H1276       H  0.79447446  0.94824327  0.24080766     0.04800
C1277       C  0.72008078  0.07192133  0.15503161    -0.21000
C1278       C  0.75570384  0.06831101  0.14504947    -0.07500
C1279       C  0.77843003  0.09714471  0.14782825     0.13300
C1280       C  0.76580630  0.12735998  0.16385371    -0.21000
C1281       C  0.73088232  0.12993938  0.17625308    -0.07500
C1282       C  0.70719834  0.10234200  0.17007914     0.13300
C1283       C  0.66808622  0.10470865  0.17826533    -0.24400
H1284       H  0.70214542  0.05049038  0.15147967     0.14600
H1285       H  0.78366324  0.14883088  0.16753648     0.14600
C1286       C  0.81612084  0.09645454  0.13486082    -0.24300
H1287       H  0.65330312  0.08216685  0.16799926     0.04900
H1288       H  0.65650948  0.12801543  0.16586560     0.08100
H1289       H  0.66390616  0.10545657  0.20704057     0.08100
H1290       H  0.81645772  0.09139318  0.10617577     0.08100
H1291       H  0.83168894  0.07647435  0.14895360     0.08100
H1292       H  0.82932410  0.12149905  0.13911522     0.04800
C1293       C  0.02708901  0.79879999  0.12820732    -0.21000
C1294       C  0.00424464  0.82032668  0.14776909    -0.07500
C1295       C  0.00751045  0.82014385  0.18473820     0.13300
C1296       C  0.03099716  0.79728337  0.20112214    -0.21000
C1297       C  0.05485240  0.77644102  0.18220578    -0.07500
C1298       C  0.05311941  0.77768391  0.14494880     0.13300
C1299       C  0.07870680  0.75735954  0.12282361    -0.24400
H1300       H  0.02437207  0.79825536  0.09989835     0.14600
H1301       H  0.03166322  0.79688487  0.22955196     0.14600
C1302       C  0.98640880  0.84452706  0.20751578    -0.24300
H1303       H  0.07386369  0.76147150  0.09437252     0.04900
H1304       H  0.07578005  0.72954011  0.12831446     0.08100
H1305       H  0.10631121  0.76540817  0.12880229     0.08100
H1306       H  0.99480895  0.84330912  0.23546255     0.08100
H1307       H  0.95799969  0.83789474  0.20654552     0.08100
H1308       H  0.99016855  0.87131852  0.19841874     0.04800
C1309       C  0.88024958  0.83020562  0.19420142    -0.21000
C1310       C  0.87839660  0.82684941  0.15752500    -0.07500
C1311       C  0.85424357  0.80248254  0.14347284     0.13300
C1312       C  0.83202519  0.78342608  0.16621245    -0.21000
C1313       C  0.83432221  0.78675953  0.20301450    -0.07500
C1314       C  0.85989821  0.80984956  0.21685299     0.13300
C1315       C  0.86701859  0.81322079  0.25571803    -0.24400
H1316       H  0.89914957  0.84795285  0.20554435     0.14600
H1317       H  0.81202055  0.76669601  0.15500629     0.14600
C1318       C  0.85137462  0.79590893  0.10464729    -0.24300
H1319       H  0.89569200  0.80865748  0.26096341     0.04900
H1320       H  0.85216698  0.79430161  0.27152213     0.08100
H1321       H  0.85989727  0.83953429  0.26468823     0.08100
H1322       H  0.82371437  0.80081846  0.09576946     0.08100
H1323       H  0.85828380  0.76869284  0.09898775     0.08100
H1324       H  0.86923393  0.81252268  0.08919516     0.04800
C1325       C  0.07080614  0.91345206  0.79098273    -0.21000
C1326       C  0.10081610  0.91334542  0.76926011    -0.07500
C1327       C  0.11975945  0.94440201  0.76504450     0.13300
C1328       C  0.11023685  0.97313396  0.78529175    -0.21000
C1329       C  0.08256793  0.97195737  0.80997121    -0.07500
C1330       C  0.06096587  0.94242285  0.81074164     0.13300
C1331       C  0.02808384  0.94036015  0.83271140    -0.24400
H1332       H  0.05587631  0.89002518  0.79404682     0.14600
H1333       H  0.12603179  0.99620058  0.78314417     0.14600
C1334       C  0.15134071  0.94739806  0.74108772    -0.24300
H1335       H  0.01010382  0.96230179  0.82681556     0.04900
H1336       H  0.01332857  0.91681229  0.82626570     0.08100
H1337       H  0.03495408  0.93981681  0.86104983     0.08100
H1338       H  0.14312964  0.94184223  0.71365757     0.08100
H1339       H  0.17263037  0.92933379  0.74946607     0.08100
H1340       H  0.16275826  0.97364505  0.74150019     0.04800
C1341       C  0.16673776  0.12240670  0.88041844    -0.21000
C1342       C  0.18543384  0.12088796  0.84858712    -0.07500
C1343       C  0.18951496  0.08880821  0.83150476     0.13300
C1344       C  0.16920940  0.06121981  0.84290348    -0.21000
C1345       C  0.14385521  0.06535602  0.86960799    -0.07500
C1346       C  0.14562435  0.09494348  0.89126272     0.13300
C1347       C  0.12447011  0.09883882  0.92454982    -0.24400
H1348       H  0.16563770  0.14638221  0.89489624     0.14600
H1349       H  0.17044891  0.03742357  0.82809336     0.14600
C1350       C  0.21203533  0.08385707  0.79919953    -0.24300
H1351       H  0.13273412  0.12181962  0.93975558     0.04900
H1352       H  0.12886419  0.07610782  0.94157474     0.08100
H1353       H  0.09581441  0.10194855  0.91846601     0.08100
H1354       H  0.23979807  0.09160370  0.80488464     0.08100
H1355       H  0.20102567  0.09918050  0.77716738     0.08100
H1356       H  0.21268705  0.05661839  0.79040436     0.04800
C1357       C  0.81543428  0.86717073  0.82403925    -0.21000
C1358       C  0.81374314  0.85621487  0.78889133    -0.07500
C1359       C  0.84100290  0.86545074  0.76541307     0.13300
C1360       C  0.87142772  0.88110428  0.77887100    -0.21000
C1361       C  0.87483989  0.88770560  0.81483894    -0.07500
C1362       C  0.84570471  0.88288509  0.83742318     0.13300
C1363       C  0.84715881  0.89144306  0.87610281    -0.24400
H1364       H  0.79406867  0.86114863  0.84192060     0.14600
H1365       H  0.89372885  0.88594639  0.76171019     0.14600
C1366       C  0.83856457  0.85890908  0.72647041    -0.24300
H1367       H  0.82194736  0.88515030  0.88959142     0.04900
H1368       H  0.85183720  0.91935968  0.87971381     0.08100
H1369       H  0.86875796  0.87663656  0.88907920     0.08100
H1370       H  0.81329373  0.86969769  0.71608386     0.08100
H1371       H  0.84007358  0.83097883  0.72082051     0.08100
H1372       H  0.86068572  0.87127110  0.71216340     0.04800
C1373       C  0.00558835  0.81333370  0.84158455    -0.21000
C1374       C  0.99341155  0.84089350  0.82120176    -0.07500
C1375       C  0.00158884  0.84131588  0.78481966     0.13300
C1376       C  0.02210780  0.81471176  0.77016222    -0.21000
C1377       C  0.03505934  0.78751139  0.79063253    -0.07500
C1378       C  0.02569221  0.78637920  0.82668185     0.13300
C1379       C  0.03538882  0.75650997  0.84993345    -0.24400
H1380       H  0.99804136  0.81199656  0.86896664     0.14600
H1381       H  0.02964390  0.81632014  0.74279006     0.14600
C1382       C  0.99008561  0.86999849  0.76061699    -0.24300
H1383       H  0.01087622  0.74578032  0.86157247     0.04900
H1384       H  0.05311479  0.76534177  0.87145308     0.08100
H1385       H  0.04864733  0.73528600  0.83551603     0.08100
H1386       H  0.01349907  0.88022630  0.74657043     0.08100
H1387       H  0.97766893  0.89199617  0.77451146     0.08100
H1388       H  0.97099247  0.85989365  0.74090444     0.04800
C1389       C  0.87115383  0.22583168  0.85034890    -0.21000
C1390       C  0.88266640  0.19675614  0.83156409    -0.07500
C1391       C  0.87010290  0.19255197  0.79651343     0.13300
C1392       C  0.84594797  0.21654258  0.78185543    -0.21000
C1393       C  0.83417071  0.24555208  0.80060870    -0.07500
C1394       C  0.84741453  0.25023114  0.83539271     0.13300
C1395       C  0.83771823  0.28169007  0.85653282    -0.24400
H1396       H  0.88180001  0.23015972  0.87644777     0.14600
H1397       H  0.83548496  0.21208767  0.75570432     0.14600
C1398       C  0.88156491  0.16225262  0.77433084    -0.24300
H1399       H  0.85227999  0.28254236  0.88192830     0.04900
H1400       H  0.80897241  0.28195959  0.86256574     0.08100
H1401       H  0.84457249  0.30513968  0.84157963     0.08100
H1402       H  0.87741852  0.13796564  0.78871986     0.08100
H1403       H  0.91000025  0.16416244  0.76752296     0.08100
H1404       H  0.86632066  0.16080155  0.74935944     0.04800
C1405       C  0.03147247  0.13433032  0.81053289    -0.21000
C1406       C  0.00361950  0.15857039  0.80878697    -0.07500
C1407       C  0.00680708  0.18507195  0.78267301     0.13300
C1408       C  0.03675701  0.18631266  0.76036452    -0.21000
C1409       C  0.06552347  0.16377750  0.76410709    -0.07500
C1410       C  0.06196174  0.13654305  0.78883906     0.13300
C1411       C  0.09054699  0.10969320  0.79371490    -0.24400
H1412       H  0.02990194  0.11367771  0.82944307     0.14600
H1413       H  0.03947739  0.20757973  0.74230818     0.14600
C1414       C  0.98062967  0.21447189  0.77923169    -0.24300
H1415       H  0.07881997  0.08367209  0.79133036     0.04900
H1416       H  0.10259101  0.11248906  0.82020573     0.08100
H1417       H  0.11175995  0.11146698  0.77372659     0.08100
H1418       H  0.97780271  0.22794848  0.80481295     0.08100
H1419       H  0.95462096  0.20503601  0.76977179     0.08100
H1420       H  0.98936188  0.23396255  0.75994209     0.04800
C1421       C  0.73453873  0.91474990  0.77496721    -0.21000
C1422       C  0.70467656  0.90674989  0.79527990    -0.07500
C1423       C  0.70216852  0.92174148  0.82937959     0.13300
C1424       C  0.72972136  0.94291267  0.84235883    -0.21000
C1425       C  0.75958045  0.95058633  0.82205117    -0.07500
C1426       C  0.76165260  0.93645692  0.78768073     0.13300
C1427       C  0.79308801  0.94345434  0.76445674    -0.24400
H1428       H  0.73744484  0.90285916  0.74936772     0.14600
H1429       H  0.72705701  0.95474163  0.86802579     0.14600
C1430       C  0.67019851  0.91712433  0.85248271    -0.24300
H1431       H  0.79214123  0.92802292  0.73990859     0.04900
H1432       H  0.81803119  0.93694638  0.77858297     0.08100
H1433       H  0.79356210  0.97089230  0.75683253     0.08100
H1434       H  0.67811589  0.90348644  0.87684416     0.08100
H1435       H  0.64849043  0.90277968  0.83946276     0.08100
H1436       H  0.65923682  0.94273003  0.85970345     0.04800
C1437       C  0.78679492  0.06401635  0.76890854    -0.21000
C1438       C  0.80646151  0.06482541  0.80034936    -0.07500
C1439       C  0.81784664  0.09708700  0.81354522     0.13300
C1440       C  0.80360686  0.12707954  0.79884323    -0.21000
C1441       C  0.77971837  0.12598077  0.77049624    -0.07500
C1442       C  0.77318534  0.09405984  0.75377201     0.13300
C1443       C  0.74983262  0.09064876  0.72171484    -0.24400
H1444       H  0.77973879  0.03948463  0.75737107     0.14600
H1445       H  0.80985475  0.15159969  0.81083840     0.14600
C1446       C  0.84384889  0.10083163  0.84359977    -0.24300
H1447       H  0.74804157  0.06362570  0.71243732     0.04900
H1448       H  0.76080959  0.10601493  0.69985812     0.08100
H1449       H  0.72251727  0.09933518  0.72797862     0.08100
H1450       H  0.86906573  0.08737419  0.83711912     0.08100
H1451       H  0.83282808  0.09052705  0.86825838     0.08100
H1452       H  0.85015320  0.12816712  0.84887392     0.04800
C1453       C  0.16210414  0.85921513  0.05324616    -0.21000
C1454       C  0.12571729  0.86710219  0.05005445    -0.07500
C1455       C  0.10334790  0.86178123  0.07935784     0.13300
C1456       C  0.11789839  0.84817922  0.11018583    -0.21000
C1457       C  0.15435278  0.84064639  0.11354808    -0.07500
C1458       C  0.17685711  0.84671316  0.08455170     0.13300
C1459       C  0.21653339  0.84135261  0.08622849    -0.24400
H1460       H  0.17961562  0.86373044  0.03129006     0.14600
H1461       H  0.10030275  0.84362380  0.13205683     0.14600
C1462       C  0.06418703  0.87032473  0.07912404    -0.24300
H1463       H  0.22980687  0.84955459  0.06170091     0.04900
H1464       H  0.22285068  0.81372618  0.08991810     0.08100
H1465       H  0.22787754  0.85678379  0.10808915     0.08100
H1466       H  0.05059390  0.85605721  0.05771102     0.08100
H1467       H  0.06017582  0.89840883  0.07599878     0.08100
H1468       H  0.05122055  0.86340273  0.10416854     0.04800
C1469       C  0.16944402  0.90248712  0.86598600    -0.21000
C1470       C  0.19336237  0.87454600  0.86742076    -0.07500
C1471       C  0.19961945  0.85927803  0.90028284     0.13300
C1472       C  0.17781499  0.86790639  0.92896133    -0.21000
C1473       C  0.15012524  0.89262586  0.92643323    -0.07500
C1474       C  0.14798312  0.91182854  0.89494968     0.13300
C1475       C  0.12285600  0.94162794  0.89100140    -0.24400
H1476       H  0.16459220  0.91456718  0.84079798     0.14600
H1477       H  0.18188813  0.85385770  0.95313261     0.14600
C1478       C  0.22749039  0.83178352  0.90501422    -0.24300
H1479       H  0.12752044  0.95499324  0.86590557     0.04900
H1480       H  0.12722853  0.96054996  0.91244557     0.08100
H1481       H  0.09499672  0.93256881  0.89119325     0.08100
H1482       H  0.24362898  0.82788390  0.88102955     0.08100
H1483       H  0.21467678  0.80711123  0.91187132     0.08100
H1484       H  0.24584030  0.83935761  0.92654384     0.04800
C1485       C  0.69851873  0.19059655  0.10244459    -0.21000
C1486       C  0.70674535  0.22588696  0.10312696    -0.07500
C1487       C  0.73463223  0.23702940  0.08071801     0.13300
C1488       C  0.75381475  0.21300715  0.05983404    -0.21000
C1489       C  0.74607170  0.17769467  0.05975709    -0.07500
C1490       C  0.71714392  0.16683739  0.08069188     0.13300
C1491       C  0.70530572  0.12999956  0.07935347    -0.24400
H1492       H  0.67768061  0.18136034  0.11942795     0.14600
H1493       H  0.77404375  0.22215714  0.04208020     0.14600
C1494       C  0.74303825  0.27467884  0.07694336    -0.24300
H1495       H  0.68279403  0.12526489  0.09737501     0.04900
H1496       H  0.72769196  0.11289775  0.08693879     0.08100
H1497       H  0.69652135  0.12332939  0.05234020     0.08100
H1498       H  0.75358786  0.28539868  0.10177837     0.08100
H1499       H  0.71864066  0.28898652  0.06929764     0.08100
H1500       H  0.76335845  0.27911181  0.05644337     0.04800
C1501       C  0.71374851  0.14529554  0.87645679    -0.21000
C1502       C  0.68356215  0.16629766  0.88132430    -0.07500
C1503       C  0.67131063  0.17139664  0.91580067     0.13300
C1504       C  0.69115964  0.15827755  0.94436085    -0.21000
C1505       C  0.72424899  0.14117895  0.93983445    -0.07500
C1506       C  0.73434528  0.13299056  0.90498395     0.13300
C1507       C  0.76779270  0.11331075  0.89715081    -0.24400
H1508       H  0.72345609  0.14153235  0.84995602     0.14600
H1509       H  0.68167477  0.16360550  0.97062470     0.14600
C1510       C  0.63841855  0.19252735  0.92253965    -0.24300
H1511       H  0.77062973  0.10865323  0.86859339     0.04900
H1512       H  0.76714705  0.08787194  0.91017631     0.08100
H1513       H  0.79123309  0.12808371  0.90626141     0.08100
H1514       H  0.61545110  0.18068768  0.90882170     0.08100
H1515       H  0.64208827  0.21906519  0.91268164     0.08100
H1516       H  0.63218718  0.19408262  0.95096729     0.04800
C1517       C  0.76960214  0.85596820  0.12044703    -0.21000
C1518       C  0.73863379  0.83594748  0.11879290    -0.07500
C1519       C  0.72234753  0.83032837  0.08558532     0.13300
C1520       C  0.74009394  0.84040213  0.05521561    -0.21000
C1521       C  0.77326810  0.85631290  0.05680837    -0.07500
C1522       C  0.78710125  0.86640090  0.08986979     0.13300
C1523       C  0.82116409  0.88628549  0.09343207    -0.24400
H1524       H  0.78142606  0.86187067  0.14572435     0.14600
H1525       H  0.72847127  0.83472810  0.02981003     0.14600
C1526       C  0.68641999  0.81382727  0.08132081    -0.24300
H1527       H  0.82829030  0.89105884  0.12134239     0.04900
H1528       H  0.84331558  0.87175924  0.08117527     0.08100
H1529       H  0.81824657  0.91163915  0.08049194     0.08100
H1530       H  0.66672274  0.82739758  0.09803968     0.08100
H1531       H  0.68781400  0.78619671  0.08817107     0.08100
H1532       H  0.67668939  0.81521438  0.05379752     0.04800
C1533       C  0.82336105  0.80320154  0.91185320    -0.21000
C1534       C  0.80566214  0.80267308  0.94430486    -0.07500
C1535       C  0.78106867  0.77515725  0.94984879     0.13300
C1536       C  0.77086207  0.75381335  0.92153854    -0.21000
C1537       C  0.78488790  0.75803684  0.88799027    -0.07500
C1538       C  0.81368980  0.78089463  0.88409180     0.13300
C1539       C  0.83308288  0.78266692  0.84970168    -0.24400
H1540       H  0.84387066  0.82201833  0.90753578     0.14600
H1541       H  0.74893420  0.73618400  0.92475577     0.14600
C1542       C  0.76376971  0.76824648  0.98474015    -0.24300
H1543       H  0.84517661  0.75722278  0.84382325     0.04900
H1544       H  0.85458086  0.80207291  0.85039459     0.08100
H1545       H  0.81449022  0.78944131  0.82820688     0.08100
H1546       H  0.74464293  0.78903327  0.99115952     0.08100
H1547       H  0.78432624  0.76572341  0.00555952     0.08100
H1548       H  0.74849166  0.74391620  0.98442115     0.04800
loop_ 
_geom_bond_atom_site_label_1 
_geom_bond_atom_site_label_2 
_geom_bond_distance 
_geom_bond_site_symmetry_2 
_ccdc_geom_bond_type 
C1            N2   1.347       .  A
C1            N6   1.354       .  A
C1         C1521   1.479       .  S
N2            C3   1.353   1_554  A
C3            N4   1.377       .  A
C3          C684   1.479       .  S
N4            C5   1.378       .  A
C5            N6   1.356   1_556  A
C5         C1534   1.522       .  S
C7            N8   1.382       .  A
C7           N12   1.349       .  A
C7         C1489   1.512       .  S
N8            C9   1.386       .  A
C9           N10   1.379   1_554  A
C9          C716   1.537       .  S
N10          C11   1.376       .  A
C11          N12   1.353   1_556  A
C11        C1505   1.521       .  S
C13          N14   1.355   1_554  A
C13          N18   1.351       .  A
C13        C1454   1.488       .  S
N14          C15   1.357       .  A
C15          N16   1.377       .  A
C15        C1473   1.518       .  S
N16          C17   1.375       .  A
C17          N18   1.351   1_556  A
C17         C685   1.483       .  S
C19          N20   1.350       .  A
C19          N24   1.353       .  A
C19        C1438   1.487       .  S
N20          C21   1.354       .  A
C21          N22   1.377   1_545  A
C21         C720   1.489       .  S
N22          C23   1.378       .  A
C23          N24   1.354   1_565  A
C23        C1425   1.499       .  S
C25          N26   1.377       .  A
C25          N30   1.347       .  A
C25        C1390   1.506       .  S
N26          C27   1.380       .  A
C27          N28   1.388       .  A
C27         C721   1.535       .  S
N28          C29   1.381       .  A
C29          N30   1.347       .  A
C29        C1406   1.535   1_655  S
C31          N32   1.344       .  A
C31          N36   1.348       .  A
C31        C1361   1.455       .  S
N32          C33   1.349       .  A
C33          N34   1.371       .  A
C33         C686   1.462       .  S
N34          C35   1.373       .  A
C35          N36   1.351       .  A
C35        C1374   1.484       .  S
C37          N38   1.354       .  A
C37          N42   1.355       .  A
C37        C1345   1.483       .  S
N38          C39   1.351   1_545  A
C39          N40   1.356   1_565  A
C39        C1329   1.492       .  S
N40          C41   1.360       .  A
C41          N42   1.355       .  A
C41         C717   1.456       .  S
C43          N44   1.347       .  A
C43          N48   1.376       .  A
C43        C1310   1.500       .  S
N44          C45   1.348       .  A
C45          N46   1.373       .  A
C45        C1294   1.496   1_655  S
N46          C47   1.379       .  A
C47          N48   1.381       .  A
C47         C687   1.520       .  S
C49          N50   1.352       .  A
C49          N54   1.354       .  A
C49        C1278   1.485       .  S
N50          C51   1.355   1_545  A
C51          N52   1.380       .  A
C51         C719   1.490       .  S
N52          C53   1.379       .  A
C53          N54   1.354   1_565  A
C53        C1262   1.501       .  S
C55          N56   1.347       .  A
C55          N60   1.370       .  A
C55        C1230   1.489       .  S
N56          C57   1.349       .  A
C57          N58   1.378       .  A
C57        C1246   1.503       .  S
N58          C59   1.382       .  A
C59          N60   1.373       .  A
C59         C722   1.518       .  S
Zr61         O62   2.444       .  S
Zr61         O63   2.396       .  S
Zr61         O64   2.360       .  S
Zr61         O67   2.376       .  S
Zr61         O69   2.373       .  S
Zr61         O70   2.389       .  S
Zr61         O71   2.394       .  S
Zr61         O72   2.390       .  S
O62         H118   0.991       .  S
O62         H126   0.990       .  S
O63          C83   1.278       .  A
O64          C85   1.268       .  A
O65         Zr75   2.519       .  S
O65          C84   1.289       .  A
O66         Zr74   2.544       .  S
O66          C85   1.306       .  A
O67          C84   1.262       .  A
O68         Zr76   2.441       .  S
O68          C83   1.285       .  A
O69         Zr74   2.391       .  S
O69         Zr76   2.373       .  S
O70         Zr75   2.410       .  S
O70         Zr76   2.351       .  S
O70         H105   0.954       .  S
O71         Zr74   2.406       .  S
O71         Zr91   2.400       .  S
O71         H108   0.967       .  S
O72         Zr75   2.420       .  S
O72         Zr91   2.387       .  S
Zr73         O98   2.439       .  S
Zr73         O92   2.426       .  S
Zr73        O100   2.383       .  S
Zr73         O88   2.359       .  S
Zr73         O79   2.398       .  S
Zr73         O80   2.425       .  S
Zr73         O81   2.382       .  S
Zr73         O82   2.392       .  S
Zr74         O93   2.438       .  S
Zr74         O86   2.435       .  S
Zr74         O87   2.536       .  S
Zr74         O80   2.415       .  S
Zr74         O81   2.394       .  S
Zr75         O77   2.434       .  S
Zr75         O99   2.435       .  S
Zr75        O101   2.523       .  S
Zr75         O79   2.416       .  S
Zr75         O82   2.409       .  S
Zr76        O102   2.437       .  S
Zr76        O103   2.435       .  S
Zr76         O78   2.435       .  S
Zr76         O79   2.405       .  S
Zr76         O80   2.383       .  S
O77         H114   0.990       .  S
O78         H109   0.990       .  S
O78         H123   0.990       .  S
O80         H106   0.966       .  S
O81         Zr91   2.362       .  S
O82         Zr91   2.383       .  S
O82         H107   0.964       .  S
C83        C1182   1.479       .  S
C84        C1153   1.515       .  S
C85        C1166   1.493       .  S
O86         H122   0.990       .  S
O87          C89   1.297       .  A
O88          C89   1.258       .  A
C89        C1201   1.502       .  S
O90         Zr91   2.439       .  S
O90         H119   0.990       .  S
Zr91         O94   2.438       .  S
Zr91         O95   2.437       .  S
Zr91         O96   2.414       .  S
O92          C97   1.283       .  A
O93         H110   0.990       .  S
O93         H125   0.990       .  S
O94         H111   0.990       .  S
O95         H115   0.990       .  S
O95         H124   0.990       .  S
O96          C97   1.279       .  A
C97        C1214   1.489       .  S
O98         H117   0.989       .  S
O98         H121   0.990       .  S
O99         H113   0.990       .  S
O99         H120   0.990       .  S
O100        C104   1.267       .  A
O101        C104   1.292       .  A
O102        H112   0.989       .  S
O103        H116   0.990       .  S
C104       C1249   1.516       .  S
C127        N128   1.347       .  A
C127        N132   1.351       .  A
C127       C1217   1.477       .  S
N128        C129   1.352       .  A
C129        N130   1.378   1_545  A
C129        C718   1.482       .  S
N130        C131   1.379       .  A
C131        N132   1.353   1_565  A
C131       C1134   1.490       .  S
Zr133       O134   2.443       .  S
Zr133       O135   2.398       .  S
Zr133       O136   2.390       .  S
Zr133       O139   2.399       .  S
Zr133       O141   2.382       .  S
Zr133       O142   2.392       .  S
Zr133       O143   2.408       .  S
Zr133       O144   2.396       .  S
O134        H190   0.990       .  S
O134        H198   0.990       .  S
O135        C155   1.277       .  A
O136        C157   1.269       .  A
O137       Zr147   2.504       .  S
O137        C156   1.293       .  A
O138       Zr146   2.503       .  S
O138        C157   1.294       .  A
O139        C156   1.270       .  A
O140       Zr148   2.411       .  S
O140        C155   1.279       .  A
O141       Zr146   2.402       .  S
O141       Zr148   2.377       .  S
O142       Zr147   2.412       .  S
O142       Zr148   2.367       .  S
O142        H177   0.965       .  S
O143       Zr146   2.413       .  S
O143       Zr163   2.395       .  S
O143        H180   0.966       .  S
O144       Zr147   2.414       .  S
O144       Zr163   2.395       .  S
Zr145       O170   2.440       .  S
Zr145       O164   2.416       .  S
Zr145       O172   2.382       .  S
Zr145       O160   2.375       .  S
Zr145       O151   2.400       .  S
Zr145       O152   2.415       .  S
Zr145       O153   2.377       .  S
Zr145       O154   2.392       .  S
Zr146       O165   2.433       .  S
Zr146       O158   2.438       .  S
Zr146       O159   2.514       .  S
Zr146       O152   2.406       .  S
Zr146       O153   2.396       .  S
Zr147       O149   2.433       .  S
Zr147       O171   2.434       .  S
Zr147       O173   2.511       .  S
Zr147       O151   2.414       .  S
Zr147       O154   2.408       .  S
Zr148       O174   2.437       .  S
Zr148       O175   2.440       .  S
Zr148       O150   2.436       .  S
Zr148       O151   2.389       .  S
Zr148       O152   2.384       .  S
O149        H186   0.989       .  S
O150        H181   0.990       .  S
O150        H195   0.990       .  S
O152        H178   0.967       .  S
O153       Zr163   2.372       .  S
O154       Zr163   2.371       .  S
O154        H179   0.965       .  S
C155       C1086   1.468       .  S
C156       C1105   1.507       .  S
C157       C1121   1.487       .  S
O158        H194   0.990       .  S
O159        C161   1.294       .  A
O160        C161   1.262       .  A
C161       C1137   1.488       .  S
O162       Zr163   2.436       .  S
O162        H191   0.990       .  S
Zr163       O166   2.435       .  S
Zr163       O167   2.436       .  S
Zr163       O168   2.424       .  S
O164        C169   1.281       .  A
O165        H182   0.990       .  S
O165        H197   0.990       .  S
O166        H183   0.990       .  S
O167        H187   0.990       .  S
O167        H196   0.990       .  S
O168        C169   1.281       .  A
C169       C1457   1.489       .  S
O170        H189   0.989       .  S
O170        H193   0.989       .  S
O171        H185   0.990       .  S
O171        H192   0.990       .  S
O172        C176   1.268       .  A
O173        C176   1.288       .  A
O174        H184   0.990       .  S
O175        H188   0.990       .  S
C176       C1297   1.509       .  S
Zr199       O200   2.435       .  S
Zr199       O201   2.436       .  S
Zr199       O202   2.380       .  S
Zr199       O205   2.395       .  S
Zr199       O207   2.391       .  S
Zr199       O208   2.392       .  S
Zr199       O209   2.420       .  S
Zr199       O210   2.403       .  S
O200        H256   0.990       .  S
O200        H264   0.990       .  S
O201        C221   1.285       .  A
O202        C223   1.264       .  A
O203       Zr213   2.547       .  S
O203        C222   1.300       .  A
O204       Zr212   2.534       .  S
O204        C223   1.296       .  A
O205        C222   1.267       .  A
O206       Zr214   2.413       .  S
O206        C221   1.280       .  A
O207       Zr212   2.400       .  S
O207       Zr214   2.371       .  S
O208       Zr213   2.412       .  S
O208       Zr214   2.361       .  S
O208        H243   0.964       .  S
O209       Zr212   2.415       .  S
O209       Zr229   2.379       .  S
O209        H246   0.966       .  S
O210       Zr213   2.412       .  S
O210       Zr229   2.388       .  S
Zr211       O236   2.440       .  S
Zr211       O230   2.424       .  S
Zr211       O238   2.384       .  S
Zr211       O226   2.385       .  S
Zr211       O217   2.401       .  S
Zr211       O218   2.409       .  S
Zr211       O220   2.399       .  S
Zr211       O219   2.270       .  S
Zr212       O231   2.436       .  S
Zr212       O224   2.436       .  S
Zr212       O225   2.525       .  S
Zr212       O218   2.420       .  S
Zr212       O219   2.293       .  S
Zr213       O215   2.435       .  S
Zr213       O237   2.434       .  S
Zr213       O239   2.524       .  S
Zr213       O217   2.435       .  S
Zr213       O220   2.429       .  S
Zr214       O240   2.435       .  S
Zr214       O241   2.435       .  S
Zr214       O216   2.440       .  S
Zr214       O217   2.398       .  S
Zr214       O218   2.390       .  S
O215        H252   0.990       .  S
O216        H247   0.990       .  S
O216        H261   0.990       .  S
O218        H244   0.966       .  S
O219       Zr229   2.272       .  S
O220       Zr229   2.359       .  S
O220        H245   0.964       .  S
C221       C1281   1.482       .  S
C222       C1486   1.523       .  S
C223       C1233   1.519       .  S
O224        H260   0.990       .  S
O225        C227   1.296       .  A
O226        C227   1.265       .  A
C227       C1038   1.505       .  S
O228       Zr229   2.436       .  S
O228        H257   0.990       .  S
Zr229       O232   2.433       .  S
Zr229       O233   2.441       .  S
Zr229       O234   2.401       .  S
O230        C235   1.281       .  A
O231        H248   0.990       .  S
O231        H263   0.990       .  S
O232        H249   0.990       .  S
O233        H253   0.990       .  S
O233        H262   0.990       .  S
O234        C235   1.276       .  A
C235       C1054   1.486       .  S
O236        H255   0.991       .  S
O236        H259   0.990       .  S
O237        H251   0.990       .  S
O237        H258   0.990       .  S
O238        C242   1.265       .  A
O239        C242   1.292       .  A
O240        H250   0.990       .  S
O241        H254   0.990       .  S
C242       C1070   1.515       .  S
Zr265       O266   2.442       .  S
Zr265       O267   2.411       .  S
Zr265       O268   2.376       .  S
Zr265       O271   2.386       .  S
Zr265       O273   2.380       .  S
Zr265       O274   2.390       .  S
Zr265       O275   2.419       .  S
Zr265       O276   2.396       .  S
O266        H322   0.990       .  S
O266        H330   0.990       .  S
O267        C287   1.280       .  A
O268        C289   1.263       .  A
O269       Zr279   2.541       .  S
O269        C288   1.299       .  A
O270       Zr278   2.535       .  S
O270        C289   1.296       .  A
O271        C288   1.269       .  A
O272       Zr280   2.414       .  S
O272        C287   1.279       .  A
O273       Zr278   2.401       .  S
O273       Zr280   2.369       .  S
O274       Zr279   2.412       .  S
O274       Zr280   2.364       .  S
O274        H309   0.965       .  S
O275       Zr278   2.415       .  S
O275       Zr295   2.382       .  S
O275        H312   0.966       .  S
O276       Zr279   2.412       .  S
O276       Zr295   2.398       .  S
Zr277       O302   2.440       .  S
Zr277       O296   2.429       .  S
Zr277       O304   2.386       .  S
Zr277       O292   2.380       .  S
Zr277       O283   2.403       .  S
Zr277       O284   2.399       .  S
Zr277       O285   2.381       .  S
Zr277       O286   2.391       .  S
Zr278       O297   2.434       .  S
Zr278       O290   2.435       .  S
Zr278       O291   2.531       .  S
Zr278       O284   2.409       .  S
Zr278       O285   2.398       .  S
Zr279       O281   2.435       .  S
Zr279       O303   2.435       .  S
Zr279       O305   2.532       .  S
Zr279       O283   2.428       .  S
Zr279       O286   2.416       .  S
Zr280       O306   2.437       .  S
Zr280       O307   2.436       .  S
Zr280       O282   2.435       .  S
Zr280       O283   2.390       .  S
Zr280       O284   2.387       .  S
O281        H318   0.990       .  S
O282        H313   0.990       .  S
O282        H327   0.990       .  S
O284        H310   0.966       .  S
O285       Zr295   2.371       .  S
O286       Zr295   2.349       .  S
O286        H311   0.966       .  S
C287        C993   1.486       .  S
C288       C1006   1.521       .  S
C289       C1025   1.510       .  S
O290        H326   0.990       .  S
O291        C293   1.300       .  A
O292        C293   1.268       .  A
C293       C1313   1.502       .  S
O294       Zr295   2.436       .  S
O294        H323   0.990       .  S
Zr295       O298   2.434       .  S
Zr295       O299   2.437       .  S
Zr295       O300   2.422       .  S
O296        C301   1.284       .  A
O297        H314   0.990       .  S
O297        H329   0.990       .  S
O298        H315   0.990       .  S
O299        H319   0.990       .  S
O299        H328   0.990       .  S
O300        C301   1.281       .  A
C301       C1518   1.487       .  S
O302        H321   0.989       .  S
O302        H325   0.990       .  S
O303        H317   0.990       .  S
O303        H324   0.990       .  S
O304        C308   1.267       .  A
O305        C308   1.294       .  A
O306        H316   0.990       .  S
O307        H320   0.990       .  S
C308       C1265   1.523       .  S
C331        N332   1.343       .  A
C331        N336   1.375       .  A
C331       C1198   1.488       .  S
N332        C333   1.343   1_554  A
C333        N334   1.377       .  A
C333        C977   1.500       .  S
N334        C335   1.383   1_556  A
C335        N336   1.380       .  A
C335        C715   1.524       .  S
Zr337       O338   2.438       .  S
Zr337       O339   2.402       .  S
Zr337       O340   2.386       .  S
Zr337       O343   2.368       .  S
Zr337       O346   2.391       .  S
Zr337       O347   2.408       .  S
Zr337       O348   2.394       .  S
Zr337       O345   2.256       .  S
O338        H394   0.990       .  S
O338        H402   0.988       .  S
O339        C359   1.279       .  A
O340        C361   1.264       .  A
O341       Zr351   2.544       .  S
O341        C360   1.298       .  A
O342       Zr350   2.543       .  S
O342        C361   1.301       .  A
O343        C360   1.262       .  A
O344       Zr352   2.423       .  S
O344        C359   1.281       .  A
O345       Zr350   2.297       .  S
O345       Zr352   2.278       .  S
O346       Zr351   2.400       .  S
O346       Zr352   2.366       .  S
O346        H381   0.965       .  S
O347       Zr350   2.415       .  S
O347       Zr367   2.401       .  S
O347        H384   0.965       .  S
O348       Zr351   2.406       .  S
O348       Zr367   2.390       .  S
Zr349       O374   2.448       .  S
Zr349       O368   2.433       .  S
Zr349       O376   2.390       .  S
Zr349       O364   2.364       .  S
Zr349       O355   2.405       .  S
Zr349       O356   2.430       .  S
Zr349       O357   2.394       .  S
Zr349       O358   2.392       .  S
Zr350       O369   2.437       .  S
Zr350       O362   2.434       .  S
Zr350       O363   2.555       .  S
Zr350       O356   2.410       .  S
Zr350       O357   2.398       .  S
Zr351       O353   2.432       .  S
Zr351       O375   2.435       .  S
Zr351       O377   2.533       .  S
Zr351       O355   2.412       .  S
Zr351       O358   2.408       .  S
Zr352       O378   2.435       .  S
Zr352       O379   2.437       .  S
Zr352       O354   2.436       .  S
Zr352       O355   2.394       .  S
Zr352       O356   2.382       .  S
O353        H390   0.990       .  S
O354        H385   0.990       .  S
O354        H399   0.990       .  S
O356        H382   0.966       .  S
O357       Zr367   2.379       .  S
O358       Zr367   2.383       .  S
O358        H383   0.965       .  S
C359       C1342   1.475       .  S
C360        C974   1.519       .  S
C361       C1409   1.513       .  S
O362        H398   0.990       .  S
O363        C365   1.303       .  A
O364        C365   1.261       .  A
C365        C926   1.517       .  S
O366       Zr367   2.438       .  S
O366        H395   0.991       .  S
Zr367       O370   2.434       .  S
Zr367       O371   2.437       .  S
Zr367       O372   2.418       .  S
O368        C373   1.282       .  A
O369        H386   0.990       .  S
O369        H401   0.990       .  S
O370        H387   0.990       .  S
O371        H391   0.990       .  S
O371        H400   0.990       .  S
O372        C373   1.280       .  A
C373        C945   1.473       .  S
O374        H393   0.988       .  S
O374        H397   0.989       .  S
O375        H389   0.990       .  S
O375        H396   0.990       .  S
O376        C380   1.267       .  A
O377        C380   1.297       .  A
O378        H388   0.991       .  S
O379        H392   0.990       .  S
C380        C961   1.507       .  S
Zr403       O404   2.444       .  S
Zr403       O405   2.413       .  S
Zr403       O406   2.370       .  S
Zr403       O409   2.392       .  S
Zr403       O411   2.378       .  S
Zr403       O412   2.386       .  S
Zr403       O413   2.404       .  S
Zr403       O414   2.392       .  S
O404        H460   0.991       .  S
O404        H468   0.991       .  S
O405        C425   1.279       .  A
O406        C427   1.270       .  A
O407       Zr417   2.471       .  S
O407        C426   1.285       .  A
O408       Zr416   2.505       .  S
O408        C427   1.297       .  A
O409        C426   1.267       .  A
O410       Zr418   2.430       .  S
O410        C425   1.281       .  A
O411       Zr416   2.394       .  S
O411       Zr418   2.375       .  S
O412       Zr417   2.418       .  S
O412       Zr418   2.370       .  S
O412        H447   0.964       .  S
O413       Zr416   2.408       .  S
O413       Zr433   2.397       .  S
O413        H450   0.964       .  S
O414       Zr417   2.413       .  S
O414       Zr433   2.392       .  S
Zr415       O440   2.437       .  S
Zr415       O434   2.410       .  S
Zr415       O442   2.393       .  S
Zr415       O430   2.389       .  S
Zr415       O421   2.385       .  S
Zr415       O422   2.402       .  S
Zr415       O423   2.382       .  S
Zr415       O424   2.379       .  S
Zr416       O435   2.438       .  S
Zr416       O428   2.435       .  S
Zr416       O429   2.509       .  S
Zr416       O422   2.415       .  S
Zr416       O423   2.382       .  S
Zr417       O419   2.434       .  S
Zr417       O441   2.435       .  S
Zr417       O443   2.497       .  S
Zr417       O421   2.403       .  S
Zr417       O424   2.389       .  S
Zr418       O444   2.438       .  S
Zr418       O445   2.436       .  S
Zr418       O420   2.435       .  S
Zr418       O421   2.406       .  S
Zr418       O422   2.396       .  S
O419        H456   0.990       .  S
O420        H451   0.990       .  S
O420        H465   0.990       .  S
O422        H448   0.965       .  S
O423       Zr433   2.353       .  S
O424       Zr433   2.374       .  S
O424        H449   0.964       .  S
C425       C1326   1.488       .  S
C426       C1377   1.489       .  S
C427       C1470   1.483       .  S
O428        H464   0.990       .  S
O429        C431   1.296       .  A
O430        C431   1.268       .  A
C431        C894   1.494       .  S
O432       Zr433   2.435       .  S
O432        H461   0.990       .  S
Zr433       O436   2.434       .  S
Zr433       O437   2.435       .  S
Zr433       O438   2.437       .  S
O434        C439   1.283       .  A
O435        H452   0.990       .  S
O435        H467   0.990       .  S
O436        H453   0.990       .  S
O437        H457   0.990       .  S
O437        H466   0.990       .  S
O438        C439   1.284       .  A
C439        C910   1.495       .  S
O440        H459   0.990       .  S
O440        H463   0.990       .  S
O441        H455   0.990       .  S
O441        H462   0.990       .  S
O442        C446   1.278       .  A
O443        C446   1.296       .  A
O444        H454   0.990       .  S
O445        H458   0.990       .  S
C446        C878   1.481       .  S
Zr469       O470   2.447       .  S
Zr469       O471   2.422       .  S
Zr469       O472   2.384       .  S
Zr469       O475   2.393       .  S
Zr469       O477   2.378       .  S
Zr469       O478   2.390       .  S
Zr469       O479   2.418       .  S
Zr469       O480   2.403       .  S
O470        H526   0.990       .  S
O470        H534   0.990       .  S
O471        C491   1.281       .  A
O472        C493   1.271       .  A
O473       Zr483   2.518       .  S
O473        C492   1.294       .  A
O474       Zr482   2.527       .  S
O474        C493   1.300       .  A
O475        C492   1.267       .  A
O476       Zr484   2.404       .  S
O476        C491   1.277       .  A
O477       Zr482   2.403       .  S
O477       Zr484   2.383       .  S
O478       Zr483   2.412       .  S
O478       Zr484   2.369       .  S
O478        H513   0.965       .  S
O479       Zr482   2.409       .  S
O479       Zr499   2.387       .  S
O479        H516   0.966       .  S
O480       Zr483   2.417       .  S
O480       Zr499   2.396       .  S
Zr481       O506   2.444       .  S
Zr481       O500   2.416       .  S
Zr481       O508   2.390       .  S
Zr481       O496   2.377       .  S
Zr481       O487   2.396       .  S
Zr481       O488   2.414       .  S
Zr481       O489   2.386       .  S
Zr481       O490   2.390       .  S
Zr482       O501   2.436       .  S
Zr482       O494   2.434       .  S
Zr482       O495   2.532       .  S
Zr482       O488   2.408       .  S
Zr482       O489   2.395       .  S
Zr483       O485   2.436       .  S
Zr483       O507   2.435       .  S
Zr483       O509   2.518       .  S
Zr483       O487   2.415       .  S
Zr483       O490   2.411       .  S
Zr484       O510   2.435       .  S
Zr484       O511   2.436       .  S
Zr484       O486   2.438       .  S
Zr484       O487   2.394       .  S
Zr484       O488   2.379       .  S
O485        H522   0.990       .  S
O486        H517   0.990       .  S
O486        H531   0.990       .  S
O488        H514   0.966       .  S
O489       Zr499   2.371       .  S
O490       Zr499   2.372       .  S
O490        H515   0.965       .  S
C491       C1441   1.481       .  S
C492       C1393   1.512       .  S
C493       C1502   1.492       .  S
O494        H530   0.990       .  S
O495        C497   1.299       .  A
O496        C497   1.263       .  A
C497        C846   1.501       .  S
O498       Zr499   2.436       .  S
O498        H527   0.990       .  S
Zr499       O502   2.434       .  S
Zr499       O503   2.436       .  S
Zr499       O504   2.406       .  S
O500        C505   1.281       .  A
O501        H518   0.990       .  S
O501        H533   0.990       .  S
O502        H519   0.990       .  S
O503        H523   0.990       .  S
O503        H532   0.990       .  S
O504        C505   1.277       .  A
C505        C865   1.481       .  S
O506        H525   0.990       .  S
O506        H529   0.991       .  S
O507        H521   0.990       .  S
O507        H528   0.990       .  S
O508        C512   1.269       .  A
O509        C512   1.294       .  A
O510        H520   0.990       .  S
O511        H524   0.990       .  S
C512        C833   1.499       .  S
Zr535       O536   2.438       .  S
Zr535       O537   2.390       .  S
Zr535       O538   2.365       .  S
Zr535       O541   2.393       .  S
Zr535       O543   2.384       .  S
Zr535       O544   2.386       .  S
Zr535       O545   2.392       .  S
Zr535       O546   2.389       .  S
O536        H592   0.990       .  S
O536        H600   0.990       .  S
O537        C557   1.277       .  A
O538        C559   1.273       .  A
O539       Zr549   2.510       .  S
O539        C558   1.294       .  A
O540       Zr548   2.518       .  S
O540        C559   1.301       .  A
O541        C558   1.268       .  A
O542       Zr550   2.422       .  S
O542        C557   1.281       .  A
O543       Zr548   2.396       .  S
O543       Zr550   2.376       .  S
O544       Zr549   2.395       .  S
O544       Zr550   2.358       .  S
O544        H579   0.963       .  S
O545       Zr548   2.406       .  S
O545       Zr565   2.393       .  S
O545        H582   0.965       .  S
O546       Zr549   2.412       .  S
O546       Zr565   2.398       .  S
Zr547       O572   2.439       .  S
Zr547       O566   2.398       .  S
Zr547       O574   2.389       .  S
Zr547       O562   2.385       .  S
Zr547       O553   2.385       .  S
Zr547       O554   2.402       .  S
Zr547       O555   2.380       .  S
Zr547       O556   2.382       .  S
Zr548       O567   2.436       .  S
Zr548       O560   2.435       .  S
Zr548       O561   2.518       .  S
Zr548       O554   2.414       .  S
Zr548       O555   2.388       .  S
Zr549       O551   2.433       .  S
Zr549       O573   2.436       .  S
Zr549       O575   2.493       .  S
Zr549       O553   2.416       .  S
Zr549       O556   2.397       .  S
Zr550       O576   2.436       .  S
Zr550       O577   2.436       .  S
Zr550       O552   2.438       .  S
Zr550       O553   2.401       .  S
Zr550       O554   2.382       .  S
O551        H588   0.990       .  S
O552        H583   0.990       .  S
O552        H597   0.988       .  S
O554        H580   0.967       .  S
O555       Zr565   2.364       .  S
O556       Zr565   2.371       .  S
O556        H581   0.964       .  S
C557       C1358   1.467       .  S
C558       C1422   1.505       .  S
C559       C1537   1.486       .  S
O560        H596   0.988       .  S
O561        C563   1.298       .  A
O562        C563   1.268       .  A
C563        C798   1.499       .  S
O564       Zr565   2.436       .  S
O564        H593   0.990       .  S
Zr565       O568   2.435       .  S
Zr565       O569   2.438       .  S
Zr565       O570   2.423       .  S
O566        C571   1.275       .  A
O567        H584   0.990       .  S
O567        H599   0.990       .  S
O568        H585   0.990       .  S
O569        H589   0.991       .  S
O569        H598   0.990       .  S
O570        C571   1.283       .  A
C571        C814   1.481       .  S
O572        H591   0.991       .  S
O572        H595   0.990       .  S
O573        H587   0.990       .  S
O573        H594   0.990       .  S
O574        C578   1.277       .  A
O575        C578   1.296       .  A
O576        H586   0.990       .  S
O577        H590   0.990       .  S
C578        C782   1.480       .  S
C601        N602   1.352       .  A
C601        N606   1.356       .  A
C601        C817   1.472       .  S
N602        C603   1.353       .  A
C603        N604   1.367       .  A
C603        C738   1.472       .  S
N604        C605   1.370       .  A
C605        N606   1.356       .  A
C605        C897   1.485       .  S
C607        N608   1.360       .  A
C607        N612   1.364       .  A
C607        C942   1.491       .  S
N608        C609   1.358       .  A
C609        N610   1.351       .  A
C609        C913   1.483       .  S
N610        C611   1.351       .  A
C611        N612   1.354       .  A
C611        C740   1.456       .  S
C613        N614   1.347       .  A
C613        N618   1.375       .  A
C613        C849   1.496       .  S
N614        C615   1.348       .  A
C615        N616   1.379       .  A
C615        C958   1.526       .  S
N616        C617   1.388       .  A
C617        N618   1.377       .  A
C617        C739   1.529       .  S
C619        N620   1.348       .  A
C619        N624   1.351       .  A
C619        C862   1.483       .  S
N620        C621   1.354       .  A
C621        N622   1.377       .  A
C621        C741   1.485       .  S
N622        C623   1.378       .  A
C623        N624   1.351       .  A
C623        C801   1.493       .  S
C625        N626   1.376       .  A
C625        N630   1.344       .  A
C625       C1073   1.501       .  S
N626        C627   1.381       .  A
C627        N628   1.386       .  A
C627        C769   1.532       .  S
N628        C629   1.380       .  A
C629        N630   1.346       .  A
C629       C1169   1.517       .  S
C631        N632   1.350       .  A
C631        N636   1.351       .  A
C631       C1057   1.487       .  S
N632        C633   1.356       .  A
C633        N634   1.381       .  A
C633        C776   1.484       .  S
N634        C635   1.378       .  A
C635        N636   1.349       .  A
C635       C1022   1.501       .  S
C637        N638   1.380       .  A
C637        N642   1.341       .  A
C637       C1009   1.510       .  S
N638        C639   1.387       .  A
C639        N640   1.386       .  A
C639        C770   1.542       .  S
N640        C641   1.381       .  A
C641        N642   1.348       .  A
C641       C1118   1.525       .  S
C643        N644   1.344       .  A
C643        N648   1.352       .  A
C643       C1185   1.473       .  S
N644        C645   1.348       .  A
C645        N646   1.378       .  A
C645        C775   1.486       .  S
N646        C647   1.382       .  A
C647        N648   1.356       .  A
C647       C1102   1.504       .  S
C649        N650   1.352       .  A
C649        N654   1.351       .  A
C649        C990   1.475       .  S
N650        C651   1.356       .  A
C651        N652   1.374       .  A
C651        C773   1.479       .  S
N652        C653   1.373       .  A
C653        N654   1.355       .  A
C653        C785   1.512       .  S
C655        N656   1.372       .  A
C655        N660   1.343       .  A
C655       C1041   1.494       .  S
N656        C657   1.379       .  A
C657        N658   1.387       .  A
C657        C772   1.528       .  S
N658        C659   1.382       .  A
C659        N660   1.349       .  A
C659        C830   1.531       .  S
C661        N662   1.346       .  A
C661        N666   1.341       .  A
C661       C1089   1.458       .  S
N662        C663   1.353       .  A
C663        N664   1.379       .  A
C663        C774   1.469       .  S
N664        C665   1.376       .  A
C665        N666   1.346       .  A
C665        C881   1.504       .  S
C667        N668   1.377       .  A
C667        N672   1.338       .  A
C667       C1150   1.489       .  S
N668        C669   1.382       .  A
C669        N670   1.387       .  A
C669        C771   1.536       .  S
N670        C671   1.382       .  A
C671        N672   1.338       .  A
C671        C929   1.504       .  S
O673       Zr709   2.475   1_565  S
O673        C684   1.300       .  A
O674       Zr708   2.452   1_566  S
O674        C685   1.292       .  A
O675       Zr681   2.434       .  S
O675        C686   1.289       .  A
O676       Zr681   2.481   1_554  S
O676        C687   1.298       .  A
O677       Zr711   2.518   1_565  S
O677        C687   1.306       .  A
O678       Zr710   2.452   1_565  S
O678        C686   1.295       .  A
O679       Zr681   2.485   1_455  S
O679        C685   1.300       .  A
O680       Zr681   2.451       .  S
O680        C684   1.292       .  A
Zr681       O682   2.344   1_556  S
Zr681       O683   2.369       .  S
Zr681       O691   2.363   1_556  S
Zr681       O689   2.340       .  S
O682       Zr708   2.367   1_665  S
O682       Zr711   2.356   1_565  S
O683       Zr709   2.346   1_565  S
O683       Zr710   2.333   1_565  S
H688        O689   0.964       .  S
O689       Zr708   2.338   1_666  S
O689       Zr710   2.334   1_565  S
H690        O691   0.966       .  S
O691       Zr709   2.375   1_564  S
O691       Zr711   2.345   1_565  S
O692       Zr708   2.485       .  S
O692        C715   1.300       .  A
O693       Zr709   2.514       .  S
O693        C716   1.307   1_556  A
O694       Zr710   2.418       .  S
O694        C717   1.287   1_655  A
O695       Zr711   2.487   1_565  S
O695        C718   1.299   1_665  A
O696       Zr711   2.498   1_565  S
O696        C719   1.303       .  A
O697       Zr710   2.445       .  S
O697        C720   1.293       .  A
O698       Zr712   2.581   1_556  S
O698        C721   1.320       .  A
O699       Zr712   2.541       .  S
O699        C722   1.313       .  A
O700       Zr710   2.448       .  S
O700        C721   1.293       .  A
O701       Zr711   2.476       .  S
O701        C722   1.300       .  A
O702       Zr708   2.444   1_556  S
O702        C717   1.292       .  A
O703       Zr709   2.484       .  S
O703        C720   1.297       .  A
O704       Zr709   2.451   1_564  S
O704        C719   1.294       .  A
O705       Zr708   2.442       .  S
O705        C718   1.293       .  A
O706       Zr712   2.524       .  S
O706        C715   1.308   1_655  A
O707       Zr712   2.530       .  S
O707        C716   1.310       .  A
Zr708       O714   2.344   1_454  S
Zr708       O726   2.351   1_455  S
Zr709       O713   2.367   1_556  S
Zr709       O724   2.366       .  S
Zr710       O714   2.352       .  S
Zr710       O724   2.355       .  S
Zr711       O713   2.382       .  S
Zr711       O726   2.394       .  S
Zr712       O713   2.391       .  S
Zr712       O714   2.356   1_554  S
Zr712       O726   2.390       .  S
Zr712       O724   2.387   1_554  S
H723        O724   0.966       .  S
H725        O726   0.965       .  S
O727       Zr763   2.459       .  S
O727        C738   1.294       .  A
O728       Zr762   2.588       .  S
O728        C739   1.322       .  A
O729       Zr735   2.401       .  S
O729        C740   1.283       .  A
O730       Zr735   2.435       .  S
O730        C741   1.291       .  A
O731       Zr765   2.489       .  S
O731        C741   1.298       .  A
O732       Zr764   2.460       .  S
O732        C740   1.294       .  A
O733       Zr735   2.432       .  S
O733        C739   1.289       .  A
O734       Zr735   2.444       .  S
O734        C738   1.292       .  A
Zr735       O736   2.347       .  S
Zr735       O737   2.332       .  S
Zr735       O745   2.331       .  S
Zr735       O743   2.356       .  S
O736       Zr762   2.386       .  S
O736       Zr765   2.364       .  S
O737       Zr763   2.342       .  S
O737       Zr764   2.343       .  S
H742        O743   0.965       .  S
O743       Zr762   2.354       .  S
O743       Zr764   2.337       .  S
H744        O745   0.965       .  S
O745       Zr763   2.366       .  S
O745       Zr765   2.345       .  S
O746       Zr762   2.552       .  S
O746        C769   1.316       .  A
O747       Zr763   2.500       .  S
O747        C770   1.302       .  A
O748       Zr764   2.481       .  S
O748        C771   1.298       .  A
O749       Zr765   2.503       .  S
O749        C772   1.304       .  A
O750       Zr765   2.483       .  S
O750        C773   1.301       .  A
O751       Zr764   2.421       .  S
O751        C774   1.286       .  A
O752       Zr766   2.486       .  S
O752        C775   1.298       .  A
O753       Zr766   2.491       .  S
O753        C776   1.302       .  A
O754       Zr764   2.453       .  S
O754        C775   1.297       .  A
O755       Zr765   2.445       .  S
O755        C776   1.292       .  A
O756       Zr762   2.553       .  S
O756        C771   1.314       .  A
O757       Zr763   2.480       .  S
O757        C774   1.300       .  A
O758       Zr763   2.444       .  S
O758        C773   1.291       .  A
O759       Zr762   2.524       .  S
O759        C772   1.310       .  A
O760       Zr766   2.488       .  S
O760        C769   1.302       .  A
O761       Zr766   2.541       .  S
O761        C770   1.310       .  A
Zr762       O768   2.382       .  S
Zr762       O780   2.409       .  S
Zr763       O767   2.360       .  S
Zr763       O778   2.343       .  S
Zr764       O768   2.349       .  S
Zr764       O778   2.378       .  S
Zr765       O767   2.367       .  S
Zr765       O780   2.379       .  S
Zr766       O767   2.342       .  S
Zr766       O768   2.397       .  S
Zr766       O780   2.393       .  S
Zr766       O778   2.362       .  S
H777        O778   0.965       .  S
H779        O780   0.966       .  S
C781        C782   1.409       .  A
C781        C786   1.413       .  A
C781        H788   1.085       .  S
C782        C783   1.405       .  A
C783        C784   1.405       .  A
C783        C790   1.507       .  S
C784        C785   1.419       .  A
C784        H789   1.083       .  S
C785        C786   1.419       .  A
C786        C787   1.506       .  S
C787        H791   1.111       .  S
C787        H792   1.107       .  S
C787        H793   1.110       .  S
C790        H794   1.110       .  S
C790        H795   1.109       .  S
C790        H796   1.111       .  S
C797        C798   1.404       .  A
C797        C802   1.412       .  A
C797        H804   1.084       .  S
C798        C799   1.425       .  A
C799        C800   1.411       .  A
C799        C806   1.507       .  S
C800        C801   1.400       .  A
C800        H805   1.084       .  S
C801        C802   1.422       .  A
C802        C803   1.508       .  S
C803        H807   1.111       .  S
C803        H808   1.109       .  S
C803        H809   1.109       .  S
C806        H810   1.108       .  S
C806        H811   1.110       .  S
C806        H812   1.111       .  S
C813        C814   1.406       .  A
C813        C818   1.398       .  A
C813        H820   1.084       .  S
C814        C815   1.423       .  A
C815        C816   1.398       .  A
C815        C822   1.512       .  S
C816        C817   1.401       .  A
C816        H821   1.084       .  S
C817        C818   1.409       .  A
C818        C819   1.505       .  S
C819        H823   1.111       .  S
C819        H824   1.109       .  S
C819        H825   1.110       .  S
C822        H826   1.106       .  S
C822        H827   1.109       .  S
C822        H828   1.111       .  S
C829        C830   1.422       .  A
C829        C834   1.407       .  A
C829        H836   1.082       .  S
C830        C831   1.420       .  A
C831        C832   1.427       .  A
C831        C838   1.500       .  S
C832        C833   1.414       .  A
C832        H837   1.084       .  S
C833        C834   1.407       .  A
C834        C835   1.509       .  S
C835        H839   1.111       .  S
C835        H840   1.110       .  S
C835        H841   1.110       .  S
C838        H842   1.107       .  S
C838        H843   1.110       .  S
C838        H844   1.111       .  S
C845        C846   1.402       .  A
C845        C850   1.411       .  A
C845        H852   1.084       .  S
C846        C847   1.426       .  A
C847        C848   1.415       .  A
C847        C854   1.509       .  S
C848        C849   1.401       .  A
C848        H853   1.084       .  S
C849        C850   1.426       .  A
C850        C851   1.510       .  S
C851        H855   1.109       .  S
C851        H856   1.110       .  S
C851        H857   1.108       .  S
C854        H858   1.110       .  S
C854        H859   1.108       .  S
C854        H860   1.111       .  S
C861        C862   1.404       .  A
C861        C866   1.397       .  A
C861        H868   1.084       .  S
C862        C863   1.417       .  A
C863        C864   1.399       .  A
C863        C870   1.510       .  S
C864        C865   1.405       .  A
C864        H869   1.084       .  S
C865        C866   1.418       .  A
C866        C867   1.509       .  S
C867        H871   1.111       .  S
C867        H872   1.109       .  S
C867        H873   1.110       .  S
C870        H874   1.106       .  S
C870        H875   1.110       .  S
C870        H876   1.110       .  S
C877        C878   1.394       .  A
C877        C882   1.405       .  A
C877        H884   1.084       .  S
C878        C879   1.416       .  A
C879        C880   1.411       .  A
C879        C886   1.501       .  S
C880        C881   1.402       .  A
C880        H885   1.082       .  S
C881        C882   1.432       .  A
C882        C883   1.510       .  S
C883        H887   1.111       .  S
C883        H888   1.109       .  S
C883        H889   1.111       .  S
C886        H890   1.109       .  S
C886        H891   1.110       .  S
C886        H892   1.103       .  S
C893        C894   1.406       .  A
C893        C898   1.410       .  A
C893        H900   1.084       .  S
C894        C895   1.422       .  A
C895        C896   1.407       .  A
C895        C902   1.508       .  S
C896        C897   1.399       .  A
C896        H901   1.084       .  S
C897        C898   1.417       .  A
C898        C899   1.506       .  S
C899        H903   1.107       .  S
C899        H904   1.110       .  S
C899        H905   1.111       .  S
C902        H906   1.108       .  S
C902        H907   1.111       .  S
C902        H908   1.110       .  S
C909        C910   1.409       .  A
C909        C914   1.400       .  A
C909        H916   1.084       .  S
C910        C911   1.421       .  A
C911        C912   1.404       .  A
C911        C918   1.507       .  S
C912        C913   1.403       .  A
C912        H917   1.084       .  S
C913        C914   1.417       .  A
C914        C915   1.510       .  S
C915        H919   1.111       .  S
C915        H920   1.108       .  S
C915        H921   1.108       .  S
C918        H922   1.108       .  S
C918        H923   1.111       .  S
C918        H924   1.111       .  S
C925        C926   1.423       .  A
C925        C930   1.412       .  A
C925        H932   1.083       .  S
C926        C927   1.412       .  A
C927        C928   1.418       .  A
C927        C934   1.505       .  S
C928        C929   1.421       .  A
C928        H933   1.084       .  S
C929        C930   1.406       .  A
C930        C931   1.506       .  S
C931        H935   1.111       .  S
C931        H936   1.110       .  S
C931        H937   1.110       .  S
C934        H938   1.110       .  S
C934        H939   1.110       .  S
C934        H940   1.111       .  S
C941        C942   1.405       .  A
C941        C946   1.397       .  A
C941        H948   1.084       .  S
C942        C943   1.424       .  A
C943        C944   1.405       .  A
C943        C950   1.507       .  S
C944        C945   1.399       .  A
C944        H949   1.084       .  S
C945        C946   1.407       .  A
C946        C947   1.499       .  S
C947        H951   1.110       .  S
C947        H952   1.110       .  S
C947        H953   1.108       .  S
C950        H954   1.110       .  S
C950        H955   1.110       .  S
C950        H956   1.111       .  S
C957        C958   1.420       .  A
C957        C962   1.412       .  A
C957        H964   1.083       .  S
C958        C959   1.416       .  A
C959        C960   1.425       .  A
C959        C966   1.503       .  S
C960        C961   1.415       .  A
C960        H965   1.082       .  S
C961        C962   1.410       .  A
C962        C963   1.505       .  S
C963        H967   1.111       .  S
C963        H968   1.110       .  S
C963        H969   1.109       .  S
C966        H970   1.110       .  S
C966        H971   1.110       .  S
C966        H972   1.107       .  S
C973        C974   1.421       .  A
C973        C978   1.416       .  A
C973        H980   1.083       .  S
C974        C975   1.416       .  A
C975        C976   1.416       .  A
C975        C982   1.504       .  S
C976        C977   1.412       .  A
C976        H981   1.084       .  S
C977        C978   1.409       .  A
C978        C979   1.506       .  S
C979        H983   1.111       .  S
C979        H984   1.110       .  S
C979        H985   1.111       .  S
C982        H986   1.110       .  S
C982        H987   1.109       .  S
C982        H988   1.111       .  S
C989        C990   1.402       .  A
C989        C994   1.400       .  A
C989        H996   1.085       .  S
C990        C991   1.411       .  A
C991        C992   1.399       .  A
C991        C998   1.507       .  S
C992        C993   1.410       .  A
C992        H997   1.083       .  S
C993        C994   1.419       .  A
C994        C995   1.510       .  S
C995        H999   1.111       .  S
C995       H1000   1.108       .  S
C995       H1001   1.111       .  S
C998       H1002   1.109       .  S
C998       H1003   1.109       .  S
C998       H1004   1.111       .  S
C1005      C1006   1.409       .  A
C1005      C1010   1.422       .  A
C1005      H1012   1.084       .  S
C1006      C1007   1.426       .  A
C1007      C1008   1.420       .  A
C1007      C1014   1.508       .  S
C1008      C1009   1.407       .  A
C1008      H1013   1.084       .  S
C1009      C1010   1.425       .  A
C1010      C1011   1.507       .  S
C1011      H1015   1.110       .  S
C1011      H1016   1.110       .  S
C1011      H1017   1.109       .  S
C1014      H1018   1.110       .  S
C1014      H1019   1.108       .  S
C1014      H1020   1.111       .  S
C1021      C1022   1.413       .  A
C1021      C1026   1.427       .  A
C1021      H1028   1.083       .  S
C1022      C1023   1.416       .  A
C1023      C1024   1.403       .  A
C1023      C1030   1.511       .  S
C1024      C1025   1.408       .  A
C1024      H1029   1.084       .  S
C1025      C1026   1.420       .  A
C1026      C1027   1.504       .  S
C1027      H1031   1.111       .  S
C1027      H1032   1.107       .  S
C1027      H1033   1.110       .  S
C1030      H1034   1.110       .  S
C1030      H1035   1.109       .  S
C1030      H1036   1.111       .  S
C1037      C1038   1.409       .  A
C1037      C1042   1.420       .  A
C1037      H1044   1.084       .  S
C1038      C1039   1.424       .  A
C1039      C1040   1.409       .  A
C1039      C1046   1.508       .  S
C1040      C1041   1.402       .  A
C1040      H1045   1.085       .  S
C1041      C1042   1.418       .  A
C1042      C1043   1.504       .  S
C1043      H1047   1.111       .  S
C1043      H1048   1.110       .  S
C1043      H1049   1.108       .  S
C1046      H1050   1.108       .  S
C1046      H1051   1.110       .  S
C1046      H1052   1.111       .  S
C1053      C1054   1.408       .  A
C1053      C1058   1.407       .  A
C1053      H1060   1.084       .  S
C1054      C1055   1.420       .  A
C1055      C1056   1.391       .  A
C1055      C1062   1.511       .  S
C1056      C1057   1.403       .  A
C1056      H1061   1.083       .  S
C1057      C1058   1.420       .  A
C1058      C1059   1.508       .  S
C1059      H1063   1.110       .  S
C1059      H1064   1.110       .  S
C1059      H1065   1.110       .  S
C1062      H1066   1.110       .  S
C1062      H1067   1.110       .  S
C1062      H1068   1.111       .  S
C1069      C1070   1.413       .  A
C1069      C1074   1.424       .  A
C1069      H1076   1.083       .  S
C1070      C1071   1.423       .  A
C1071      C1072   1.412       .  A
C1071      C1078   1.510       .  S
C1072      C1073   1.404       .  A
C1072      H1077   1.084       .  S
C1073      C1074   1.418       .  A
C1074      C1075   1.504       .  S
C1075      H1079   1.111       .  S
C1075      H1080   1.108       .  S
C1075      H1081   1.110       .  S
C1078      H1082   1.106       .  S
C1078      H1083   1.110       .  S
C1078      H1084   1.111       .  S
C1085      C1086   1.405       .  A
C1085      C1090   1.397       .  A
C1085      H1092   1.084       .  S
C1086      C1087   1.414       .  A
C1087      C1088   1.395       .  A
C1087      C1094   1.507       .  S
C1088      C1089   1.400       .  A
C1088      H1093   1.085       .  S
C1089      C1090   1.408       .  A
C1090      C1091   1.504       .  S
C1091      H1095   1.104       .  S
C1091      H1096   1.110       .  S
C1091      H1097   1.109       .  S
C1094      H1098   1.109       .  S
C1094      H1099   1.110       .  S
C1094      H1100   1.111       .  S
C1101      C1102   1.404       .  A
C1101      C1106   1.418       .  A
C1101      H1108   1.084       .  S
C1102      C1103   1.424       .  A
C1103      C1104   1.412       .  A
C1103      C1110   1.509       .  S
C1104      C1105   1.403       .  A
C1104      H1109   1.084       .  S
C1105      C1106   1.425       .  A
C1106      C1107   1.508       .  S
C1107      H1111   1.111       .  S
C1107      H1112   1.107       .  S
C1107      H1113   1.110       .  S
C1110      H1114   1.108       .  S
C1110      H1115   1.108       .  S
C1110      H1116   1.111       .  S
C1117      C1118   1.422       .  A
C1117      C1122   1.405       .  A
C1117      H1124   1.082       .  S
C1118      C1119   1.416       .  A
C1119      C1120   1.422       .  A
C1119      C1126   1.499       .  S
C1120      C1121   1.411       .  A
C1120      H1125   1.083       .  S
C1121      C1122   1.404       .  A
C1122      C1123   1.507       .  S
C1123      H1127   1.111       .  S
C1123      H1128   1.111       .  S
C1123      H1129   1.110       .  S
C1126      H1130   1.110       .  S
C1126      H1131   1.109       .  S
C1126      H1132   1.105       .  S
C1133      C1134   1.404       .  A
C1133      C1138   1.408       .  A
C1133      H1140   1.085       .  S
C1134      C1135   1.416       .  A
C1135      C1136   1.415       .  A
C1135      C1142   1.505       .  S
C1136      C1137   1.407       .  A
C1136      H1141   1.084       .  S
C1137      C1138   1.418       .  A
C1138      C1139   1.508       .  S
C1139      H1143   1.109       .  S
C1139      H1144   1.110       .  S
C1139      H1145   1.111       .  S
C1142      H1146   1.111       .  S
C1142      H1147   1.110       .  S
C1142      H1148   1.110       .  S
C1149      C1150   1.413       .  A
C1149      C1154   1.419       .  A
C1149      H1156   1.084       .  S
C1150      C1151   1.408       .  A
C1151      C1152   1.409       .  A
C1151      C1158   1.507       .  S
C1152      C1153   1.415       .  A
C1152      H1157   1.083       .  S
C1153      C1154   1.420       .  A
C1154      C1155   1.505       .  S
C1155      H1159   1.111       .  S
C1155      H1160   1.110       .  S
C1155      H1161   1.105       .  S
C1158      H1162   1.110       .  S
C1158      H1163   1.110       .  S
C1158      H1164   1.111       .  S
C1165      C1166   1.398       .  A
C1165      C1170   1.408       .  A
C1165      H1172   1.085       .  S
C1166      C1167   1.424       .  A
C1167      C1168   1.424       .  A
C1167      C1174   1.505       .  S
C1168      C1169   1.408       .  A
C1168      H1173   1.083       .  S
C1169      C1170   1.431       .  A
C1170      C1171   1.512       .  S
C1171      H1175   1.111       .  S
C1171      H1176   1.111       .  S
C1171      H1177   1.108       .  S
C1174      H1178   1.110       .  S
C1174      H1179   1.110       .  S
C1174      H1180   1.111       .  S
C1181      C1182   1.406       .  A
C1181      C1186   1.395       .  A
C1181      H1188   1.084       .  S
C1182      C1183   1.414       .  A
C1183      C1184   1.399       .  A
C1183      C1190   1.506       .  S
C1184      C1185   1.403       .  A
C1184      H1189   1.084       .  S
C1185      C1186   1.417       .  A
C1186      C1187   1.512       .  S
C1187      H1191   1.111       .  S
C1187      H1192   1.110       .  S
C1187      H1193   1.110       .  S
C1190      H1194   1.111       .  S
C1190      H1195   1.107       .  S
C1190      H1196   1.110       .  S
C1197      C1198   1.400       .  A
C1197      C1202   1.406       .  A
C1197      H1204   1.085       .  S
C1198      C1199   1.418       .  A
C1199      C1200   1.420       .  A
C1199      C1206   1.505       .  S
C1200      C1201   1.409       .  A
C1200      H1205   1.084       .  S
C1201      C1202   1.424       .  A
C1202      C1203   1.510       .  S
C1203      H1207   1.111       .  S
C1203      H1208   1.108       .  S
C1203      H1209   1.111       .  S
C1206      H1210   1.110       .  S
C1206      H1211   1.109       .  S
C1206      H1212   1.111       .  S
C1213      C1214   1.409       .  A
C1213      C1218   1.398       .  A
C1213      H1220   1.083       .  S
C1214      C1215   1.421       .  A
C1215      C1216   1.400       .  A
C1215      C1222   1.509       .  S
C1216      C1217   1.402       .  A
C1216      H1221   1.084       .  S
C1217      C1218   1.415       .  A
C1218      C1219   1.510       .  S
C1219      H1223   1.111       .  S
C1219      H1224   1.110       .  S
C1219      H1225   1.110       .  S
C1222      H1226   1.110       .  S
C1222      H1227   1.111       .  S
C1222      H1228   1.110       .  S
C1229      C1230   1.413       .  A
C1229      C1234   1.424       .  A
C1229      H1236   1.083       .  S
C1230      C1231   1.405       .  A
C1231      C1232   1.400       .  A
C1231      C1238   1.511       .  S
C1232      C1233   1.416       .  A
C1232      H1237   1.077       .  S
C1233      C1234   1.419       .  A
C1234      C1235   1.503       .  S
C1235      H1239   1.111       .  S
C1235      H1240   1.110       .  S
C1235      H1241   1.110       .  S
C1238      H1242   1.110       .  S
C1238      H1243   1.108       .  S
C1238      H1244   1.111       .  S
C1245      C1246   1.410   1_455  A
C1245      C1250   1.427       .  A
C1245      H1252   1.083       .  S
C1246      C1247   1.417       .  A
C1247      C1248   1.405   1_655  A
C1247      C1254   1.509       .  S
C1248      C1249   1.408       .  A
C1248      H1253   1.084       .  S
C1249      C1250   1.423       .  A
C1250      C1251   1.503       .  S
C1251      H1255   1.111       .  S
C1251      H1256   1.110       .  S
C1251      H1257   1.108       .  S
C1254      H1258   1.107       .  S
C1254      H1259   1.111       .  S
C1254      H1260   1.111       .  S
C1261      C1262   1.411       .  A
C1261      C1266   1.425       .  A
C1261      H1268   1.084       .  S
C1262      C1263   1.411       .  A
C1263      C1264   1.411       .  A
C1263      C1270   1.508       .  S
C1264      C1265   1.414       .  A
C1264      H1269   1.082       .  S
C1265      C1266   1.423       .  A
C1266      C1267   1.504       .  S
C1267      H1271   1.111       .  S
C1267      H1272   1.110       .  S
C1267      H1273   1.107       .  S
C1270      H1274   1.110       .  S
C1270      H1275   1.110       .  S
C1270      H1276   1.111       .  S
C1277      C1278   1.402       .  A
C1277      C1282   1.399       .  A
C1277      H1284   1.084       .  S
C1278      C1279   1.419       .  A
C1279      C1280   1.404       .  A
C1279      C1286   1.505       .  S
C1280      C1281   1.403       .  A
C1280      H1285   1.084       .  S
C1281      C1282   1.419       .  A
C1282      C1283   1.510       .  S
C1283      H1287   1.111       .  S
C1283      H1288   1.111       .  S
C1283      H1289   1.109       .  S
C1286      H1290   1.110       .  S
C1286      H1291   1.110       .  S
C1286      H1292   1.108       .  S
C1293      C1294   1.411       .  A
C1293      C1298   1.426       .  A
C1293      H1300   1.083       .  S
C1294      C1295   1.414       .  A
C1295      C1296   1.398       .  A
C1295      C1302   1.509   1_455  S
C1296      C1297   1.406       .  A
C1296      H1301   1.084       .  S
C1297      C1298   1.422       .  A
C1298      C1299   1.503       .  S
C1299      H1303   1.111       .  S
C1299      H1304   1.110       .  S
C1299      H1305   1.110       .  S
C1302      H1306   1.111       .  S
C1302      H1307   1.103       .  S
C1302      H1308   1.110       .  S
C1309      C1310   1.405       .  A
C1309      C1314   1.407       .  A
C1309      H1316   1.082       .  S
C1310      C1311   1.420       .  A
C1311      C1312   1.421       .  A
C1311      C1318   1.504       .  S
C1312      C1313   1.410       .  A
C1312      H1317   1.084       .  S
C1313      C1314   1.420       .  A
C1314      C1315   1.509       .  S
C1315      H1319   1.111       .  S
C1315      H1320   1.109       .  S
C1315      H1321   1.110       .  S
C1318      H1322   1.110       .  S
C1318      H1323   1.110       .  S
C1318      H1324   1.109       .  S
C1325      C1326   1.404       .  A
C1325      C1330   1.402       .  A
C1325      H1332   1.081       .  S
C1326      C1327   1.417       .  A
C1327      C1328   1.402       .  A
C1327      C1334   1.508       .  S
C1328      C1329   1.408       .  A
C1328      H1333   1.084       .  S
C1329      C1330   1.413       .  A
C1330      C1331   1.501       .  S
C1331      H1335   1.110       .  S
C1331      H1336   1.101       .  S
C1331      H1337   1.110       .  S
C1334      H1338   1.110       .  S
C1334      H1339   1.110       .  S
C1334      H1340   1.111       .  S
C1341      C1342   1.406       .  A
C1341      C1346   1.401       .  A
C1341      H1348   1.083       .  S
C1342      C1343   1.414       .  A
C1343      C1344   1.394       .  A
C1343      C1350   1.509       .  S
C1344      C1345   1.407       .  A
C1344      H1349   1.084       .  S
C1345      C1346   1.416       .  A
C1346      C1347   1.508       .  S
C1347      H1351   1.109       .  S
C1347      H1352   1.111       .  S
C1347      H1353   1.109       .  S
C1350      H1354   1.110       .  S
C1350      H1355   1.109       .  S
C1350      H1356   1.111       .  S
C1357      C1358   1.405       .  A
C1357      C1362   1.391       .  A
C1357      H1364   1.084       .  S
C1358      C1359   1.414       .  A
C1359      C1360   1.396       .  A
C1359      C1366   1.507       .  S
C1360      C1361   1.399       .  A
C1360      H1365   1.085       .  S
C1361      C1362   1.412       .  A
C1362      C1363   1.511       .  S
C1363      H1367   1.111       .  S
C1363      H1368   1.110       .  S
C1363      H1369   1.110       .  S
C1366      H1370   1.110       .  S
C1366      H1371   1.109       .  S
C1366      H1372   1.111       .  S
C1373      C1374   1.401   1_455  A
C1373      C1378   1.409       .  A
C1373      H1380   1.084   1_455  S
C1374      C1375   1.422   1_655  A
C1375      C1376   1.404       .  A
C1375      C1382   1.511   1_455  S
C1376      C1377   1.402       .  A
C1376      H1381   1.084       .  S
C1377      C1378   1.421       .  A
C1378      C1379   1.507       .  S
C1379      H1383   1.111       .  S
C1379      H1384   1.110       .  S
C1379      H1385   1.108       .  S
C1382      H1386   1.110   1_655  S
C1382      H1387   1.107       .  S
C1382      H1388   1.110       .  S
C1389      C1390   1.404       .  A
C1389      C1394   1.420       .  A
C1389      H1396   1.084       .  S
C1390      C1391   1.424       .  A
C1391      C1392   1.415       .  A
C1391      C1398   1.510       .  S
C1392      C1393   1.405       .  A
C1392      H1397   1.084       .  S
C1393      C1394   1.426       .  A
C1394      C1395   1.507       .  S
C1395      H1399   1.111       .  S
C1395      H1400   1.108       .  S
C1395      H1401   1.110       .  S
C1398      H1402   1.107       .  S
C1398      H1403   1.106       .  S
C1398      H1404   1.111       .  S
C1405      C1406   1.408       .  A
C1405      C1410   1.421       .  A
C1405      H1412   1.084       .  S
C1406      C1407   1.442       .  A
C1407      C1408   1.417       .  A
C1407      C1414   1.512   1_455  S
C1408      C1409   1.397       .  A
C1408      H1413   1.084       .  S
C1409      C1410   1.429       .  A
C1410      C1411   1.508       .  S
C1411      H1415   1.111       .  S
C1411      H1416   1.110       .  S
C1411      H1417   1.109       .  S
C1414      H1418   1.110       .  S
C1414      H1419   1.107       .  S
C1414      H1420   1.111       .  S
C1421      C1422   1.405       .  A
C1421      C1426   1.412       .  A
C1421      H1428   1.084       .  S
C1422      C1423   1.426       .  A
C1423      C1424   1.415       .  A
C1423      C1430   1.507       .  S
C1424      C1425   1.402       .  A
C1424      H1429   1.084       .  S
C1425      C1426   1.421       .  A
C1426      C1427   1.508       .  S
C1427      H1431   1.110       .  S
C1427      H1432   1.109       .  S
C1427      H1433   1.108       .  S
C1430      H1434   1.110       .  S
C1430      H1435   1.107       .  S
C1430      H1436   1.111       .  S
C1437      C1438   1.406       .  A
C1437      C1442   1.400       .  A
C1437      H1444   1.084       .  S
C1438      C1439   1.419       .  A
C1439      C1440   1.400       .  A
C1439      C1446   1.511       .  S
C1440      C1441   1.404       .  A
C1440      H1445   1.083       .  S
C1441      C1442   1.416       .  A
C1442      C1443   1.508       .  S
C1443      H1447   1.111       .  S
C1443      H1448   1.110       .  S
C1443      H1449   1.108       .  S
C1446      H1450   1.110       .  S
C1446      H1451   1.107       .  S
C1446      H1452   1.109       .  S
C1453      C1454   1.408       .  A
C1453      C1458   1.402       .  A
C1453      H1460   1.083       .  S
C1454      C1455   1.419       .  A
C1455      C1456   1.399       .  A
C1455      C1462   1.510       .  S
C1456      C1457   1.408       .  A
C1456      H1461   1.083       .  S
C1457      C1458   1.417       .  A
C1458      C1459   1.509       .  S
C1459      H1463   1.111       .  S
C1459      H1464   1.109       .  S
C1459      H1465   1.110       .  S
C1462      H1466   1.110       .  S
C1462      H1467   1.109       .  S
C1462      H1468   1.109       .  S
C1469      C1470   1.409       .  A
C1469      C1474   1.416       .  A
C1469      H1476   1.085       .  S
C1470      C1471   1.407       .  A
C1471      C1472   1.408       .  A
C1471      C1478   1.506       .  S
C1472      C1473   1.418       .  A
C1472      H1477   1.083       .  S
C1473      C1474   1.418       .  A
C1474      C1475   1.500       .  S
C1475      H1479   1.106       .  S
C1475      H1480   1.110       .  S
C1475      H1481   1.109       .  S
C1478      H1482   1.109       .  S
C1478      H1483   1.110       .  S
C1478      H1484   1.111       .  S
C1485      C1486   1.410       .  A
C1485      C1490   1.423       .  A
C1485      H1492   1.083       .  S
C1486      C1487   1.427       .  A
C1487      C1488   1.422       .  A
C1487      C1494   1.509       .  S
C1488      C1489   1.407       .  A
C1488      H1493   1.084       .  S
C1489      C1490   1.421       .  A
C1490      C1491   1.505       .  S
C1491      H1495   1.110       .  S
C1491      H1496   1.109       .  S
C1491      H1497   1.110       .  S
C1494      H1498   1.106       .  S
C1494      H1499   1.110       .  S
C1494      H1500   1.111       .  S
C1501      C1502   1.409       .  A
C1501      C1506   1.416       .  A
C1501      H1508   1.085       .  S
C1502      C1503   1.407       .  A
C1503      C1504   1.413       .  A
C1503      C1510   1.506       .  S
C1504      C1505   1.420       .  A
C1504      H1509   1.083       .  S
C1505      C1506   1.418       .  A
C1506      C1507   1.501       .  S
C1507      H1511   1.108       .  S
C1507      H1512   1.110       .  S
C1507      H1513   1.110       .  S
C1510      H1514   1.110       .  S
C1510      H1515   1.110       .  S
C1510      H1516   1.111       .  S
C1517      C1518   1.408       .  A
C1517      C1522   1.404       .  A
C1517      H1524   1.084       .  S
C1518      C1519   1.421       .  A
C1519      C1520   1.398       .  A
C1519      C1526   1.509       .  S
C1520      C1521   1.399       .  A
C1520      H1525   1.083       .  S
C1521      C1522   1.416       .  A
C1522      C1523   1.508       .  S
C1523      H1527   1.111       .  S
C1523      H1528   1.109       .  S
C1523      H1529   1.110       .  S
C1526      H1530   1.110       .  S
C1526      H1531   1.109       .  S
C1526      H1532   1.111       .  S
C1533      C1534   1.408       .  A
C1533      C1538   1.414       .  A
C1533      H1540   1.081       .  S
C1534      C1535   1.437       .  A
C1535      C1536   1.412       .  A
C1535      C1542   1.509       .  S
C1536      C1537   1.396       .  A
C1536      H1541   1.085       .  S
C1537      C1538   1.416       .  A
C1538      C1539   1.505       .  S
C1539      H1543   1.110       .  S
C1539      H1544   1.111       .  S
C1539      H1545   1.107       .  S
C1542      H1546   1.108       .  S
C1542      H1547   1.110   1_556  S
C1542      H1548   1.111       .  S
