geometry optimzed in LAMMPS
_audit_creation_date              2020-12-01 
_audit_creation_method            'lammps2cif' 
_symmetry_space_group_name_H-M    'P1' 
_symmetry_Int_Tables_number       1 
_symmetry_cell_setting            triclinic 
loop_ 
_symmetry_equiv_pos_as_xyz 
  x,y,z 
_cell_length_a                    52.06303604 
_cell_length_b                    52.157916858359734 
_cell_length_c                    33.25057114311277 
_cell_angle_alpha                 90.32475049379626 
_cell_angle_beta                  89.6643027728936 
_cell_angle_gamma                 120.13885652752032 
loop_ 
_atom_site_label 
_atom_site_type_symbol 
_atom_site_fract_x 
_atom_site_fract_y 
_atom_site_fract_z 
_atom_site_charge 
O1          O  0.41779149  0.40249150  0.31980065    -0.74700
O2          O  0.34345781  0.32907183  0.31754294    -0.74700
O3          O  0.37281218  0.37523477  0.26544380    -0.74800
O4          O  0.38845861  0.35676009  0.37104431    -0.74800
O5          O  0.36556582  0.37904193  0.39836384    -0.74800
O6          O  0.35043523  0.39800268  0.29285098    -0.74700
O7          O  0.32070394  0.35172668  0.34418978    -0.74700
O8          O  0.39493758  0.42499765  0.34672621    -0.74800
Ni9        Ni  0.38135568  0.36503909  0.31739337     1.25400
Ni10       Ni  0.35705067  0.38917207  0.34647984     1.25400
C11         C  0.41860955  0.42579768  0.33397376     0.87500
C12         C  0.31986488  0.32820730  0.33083932     0.87400
C13         C  0.35948142  0.39016549  0.26171199     0.87400
C14         C  0.38005031  0.36527645  0.40216569     0.87600
O15         O  0.10642872  0.06715095  0.36484515    -0.74700
O16         O  0.18068167  0.14033503  0.35608021    -0.74700
O17         O  0.13512952  0.11740809  0.41002184    -0.74800
O18         O  0.15153918  0.08982006  0.31149015    -0.74800
O19         O  0.13026443  0.11069039  0.27694048    -0.74800
O20         O  0.11191898  0.13633067  0.37561514    -0.74700
O21         O  0.15805955  0.16057178  0.32323884    -0.74700
O22         O  0.08441106  0.08698784  0.32973236    -0.74800
Ni23       Ni  0.14432855  0.10306577  0.36187069     1.25400
Ni24       Ni  0.12045834  0.12441134  0.32514100     1.25400
C25         C  0.08322050  0.06490113  0.34818976     0.87500
C26         C  0.18153734  0.16262474  0.33861585     0.87400
C27         C  0.12019920  0.13084499  0.40910267     0.87400
C28         C  0.14304662  0.09515180  0.27805950     0.87600
O29         O  0.47274663  0.40121962  0.67857148    -0.74700
O30         O  0.47089325  0.32733269  0.68379089    -0.74700
O31         O  0.49641899  0.37815794  0.72935436    -0.74800
O32         O  0.44855365  0.35215076  0.63313311    -0.74800
O33         O  0.99001182  0.36953267  0.59658513    -0.74800
O34         O  0.03724739  0.39744779  0.69134238    -0.74700
O35         O  0.01287947  0.34600375  0.64821534    -0.74700
O36         O  0.01356676  0.42009411  0.64040652    -0.74800
Ni37       Ni  0.47075556  0.36392185  0.68271183     1.25400
Ni38       Ni  0.01491185  0.38382416  0.64288895     1.25400
C39         C  0.99274105  0.42245938  0.65773300     0.87500
C40         C  0.99119058  0.32420353  0.66653388     0.87400
C41         C  0.02486008  0.39337641  0.72586347     0.87400
C42         C  0.46173188  0.35744978  0.59887816     0.87600
O43         O  0.48438680  0.08263326  0.63776669    -0.74700
O44         O  0.48251173  0.15547687  0.64784706    -0.74700
O45         O  0.50606943  0.13310446  0.59458042    -0.74800
O46         O  0.45985765  0.10387128  0.69040510    -0.74800
O47         O  0.00115025  0.12435265  0.72719607    -0.74800
O48         O  0.04790151  0.15182208  0.63007255    -0.74700
O49         O  0.02476730  0.17505438  0.68248229    -0.74700
O50         O  0.02565367  0.10267036  0.67467978    -0.74800
Ni51       Ni  0.48168387  0.11818387  0.64142573     1.25400
Ni52       Ni  0.02625974  0.13928647  0.68004251     1.25400
C53         C  0.00577713  0.08101657  0.65427927     0.87500
C54         C  0.00401079  0.17758258  0.66602093     0.87400
C55         C  0.03441820  0.14591068  0.59616168     0.87400
C56         C  0.47274320  0.10842620  0.72447790     0.87600
O57         O  0.42485970  0.02496576  0.02370233    -0.74700
O58         O  0.35504660  0.03195069  0.01553983    -0.74700
O59         O  0.37457848  0.00551163  0.06784062    -0.74800
O60         O  0.40587114  0.05150556  0.97210515    -0.74800
O61         O  0.38294586  0.51037948  0.93497917    -0.74800
O62         O  0.35371865  0.46378167  0.03168776    -0.74700
O63         O  0.33256063  0.48965759  0.98070494    -0.74700
O64         O  0.40276617  0.48384383  0.98626626    -0.74800
Ni65       Ni  0.39074972  0.02994826  0.02110695     1.25400
Ni66       Ni  0.36710238  0.48549225  0.98199114     1.25400
C67         C  0.42511194  0.50307044  0.00637986     0.87500
C68         C  0.33217437  0.51174248  0.99710281     0.87400
C69         C  0.36012178  0.47712981  0.06580826     0.87400
C70         C  0.40025057  0.03857280  0.93779584     0.87600
O71         O  0.10229292  0.02545085  0.97945835    -0.74700
O72         O  0.17148764  0.01774100  0.97579477    -0.74700
O73         O  0.12116792  0.99679046  0.93004446    -0.74800
O74         O  0.15089677  0.04551611  0.02491699    -0.74800
O75         O  0.12924616  0.50480855  0.06278725    -0.74800
O76         O  0.09744333  0.45683662  0.96898827    -0.74700
O77         O  0.14825659  0.47644817  0.01229950    -0.74700
O78         O  0.07954832  0.48557261  0.01877770    -0.74800
Ni79       Ni  0.13745339  0.02275622  0.97606282     1.25400
Ni80       Ni  0.11298694  0.47946011  0.01702707     1.25400
C81         C  0.07978456  0.00721388  0.00029844     0.87500
C82         C  0.17143136  0.99598689  0.99354817     0.87400
C83         C  0.10289739  0.46891066  0.93425509     0.87400
C84         C  0.14367130  0.03307314  0.05953138     0.87600
C85         C  0.45128919  0.49951805  0.00955779    -0.05500
C86         C  0.44746276  0.47103911  0.01376579    -0.05400
C87         C  0.47200020  0.46702729  0.01490356    -0.23600
C88         C  0.50072538  0.49138092  0.01068276     0.18600
C89         C  0.00476403  0.02016390  0.00624118     0.15800
C90         C  0.48001852  0.02412850  0.00659044    -0.18600
C91         C  0.03340232  0.04433985  0.00041434    -0.20500
C92         C  0.05774206  0.03999497  0.99838317    -0.13000
C93         C  0.05395085  0.01152973  0.00308768     0.03600
C94         C  0.02539680  0.48733549  0.00980813    -0.25200
H95         H  0.42539235  0.45185271  0.01625506     0.08700
H96         H  0.46847439  0.44482671  0.01821141     0.12300
H97         H  0.48298454  0.04610163  0.00287026     0.12300
H98         H  0.03692194  0.06651362  0.99676793     0.12000
H99         H  0.07963497  0.05897953  0.99340862     0.12600
H100        H  0.02228660  0.46527510  0.01307322     0.14500
C101        C  0.19868729  0.99377780  0.99280226    -0.05500
C102        C  0.19688190  0.46602318  0.99460391    -0.05400
C103        C  0.22267056  0.46397042  0.99418087    -0.23600
C104        C  0.25075514  0.48969903  0.99304741     0.18600
C105        C  0.25282619  0.01776967  0.99189340     0.15800
C106        C  0.22680489  0.01959799  0.99103852    -0.18600
C107        C  0.28088807  0.04353386  0.99235311    -0.20500
C108        C  0.30665615  0.04153582  0.99437418    -0.13000
C109        C  0.30487085  0.51376316  0.99489566     0.03600
C110        C  0.27678931  0.48787574  0.99378429    -0.25200
H111        H  0.17546581  0.44587088  0.99590838     0.08700
H112        H  0.22065222  0.44227203  0.99528082     0.12300
H113        H  0.22843151  0.04114567  0.99015720     0.12300
H114        H  0.28289880  0.06523821  0.99167117     0.12000
H115        H  0.32805521  0.06173646  0.99506145     0.12600
H116        H  0.27519429  0.46634177  0.99462328     0.14500
C117        C  0.45439824  0.09364990  0.76050323    -0.05500
C118        C  0.42722909  0.06698088  0.75604696    -0.05400
C119        C  0.41074290  0.05117818  0.78966903    -0.23600
C120        C  0.42084808  0.06194292  0.82851124     0.18600
C121        C  0.44753630  0.08932038  0.83333682     0.15800
C122        C  0.46430520  0.10484392  0.79936479    -0.18600
C123        C  0.45726201  0.10045271  0.87212818    -0.20500
C124        C  0.44119593  0.08431747  0.90579514    -0.13000
C125        C  0.41523227  0.05650449  0.90150372     0.03600
C126        C  0.40501247  0.04557818  0.86257289    -0.25200
H127        H  0.41914898  0.05777080  0.72644019     0.08700
H128        H  0.39028477  0.03034975  0.78527682     0.12300
H129        H  0.48509056  0.12546698  0.80315181     0.12300
H130        H  0.47752917  0.12146320  0.87647735     0.12000
H131        H  0.44968562  0.09327035  0.93536722     0.12600
H132        H  0.38495818  0.02428480  0.85878597     0.14500
C133        C  0.04399844  0.40806335  0.76135438    -0.05500
C134        C  0.07347930  0.43113606  0.75548951    -0.05400
C135        C  0.09116529  0.44736869  0.78799717    -0.23600
C136        C  0.07994593  0.44067601  0.82725023     0.18600
C137        C  0.05072427  0.41686461  0.83374826     0.15800
C138        C  0.03285200  0.40087895  0.80080086    -0.18600
C139        C  0.03973557  0.40973760  0.87309227    -0.20500
C140        C  0.05730174  0.42619884  0.90554656    -0.13000
C141        C  0.08605755  0.45044998  0.89939049     0.03600
C142        C  0.09729594  0.45758900  0.86003525    -0.25200
H143        H  0.08270352  0.43732765  0.72548526     0.08700
H144        H  0.11352549  0.46538897  0.78235486     0.12300
H145        H  0.01025191  0.38312666  0.80583806     0.12300
H146        H  0.01745377  0.39158613  0.87877408     0.12000
H147        H  0.04797165  0.42047626  0.93556459     0.12600
H148        H  0.11942508  0.47622789  0.85497027     0.14500
C149        C  0.98879481  0.29469507  0.66708782    -0.05500
C150        C  0.46061280  0.26893141  0.66722705    -0.05400
C151        C  0.45777608  0.24080997  0.66657365    -0.23600
C152        C  0.48309184  0.23786917  0.66664795     0.18600
C153        C  0.01155710  0.26366933  0.66768538     0.15800
C154        C  0.01424332  0.29189217  0.66722749    -0.18600
C155        C  0.03685698  0.26078993  0.66923587    -0.20500
C156        C  0.03406741  0.23272985  0.66937636    -0.13000
C157        C  0.00597391  0.20691560  0.66717527     0.03600
C158        C  0.48047734  0.20964327  0.66576931    -0.25200
H159        H  0.44067968  0.27056360  0.66701392     0.08700
H160        H  0.43577058  0.22136796  0.66606085     0.12300
H161        H  0.03606059  0.31163393  0.66758602     0.12300
H162        H  0.05883629  0.28024895  0.67034528     0.12000
H163        H  0.05406233  0.23122980  0.67037885     0.12600
H164        H  0.45870423  0.18988313  0.66452117     0.14500
C165        C  0.99074384  0.44948157  0.65317753    -0.05500
C166        C  0.46261755  0.44706312  0.65239762    -0.05400
C167        C  0.45989645  0.47226308  0.64960166    -0.23600
C168        C  0.48529826  0.50043605  0.64851588     0.18600
C169        C  0.01376059  0.00312371  0.64919571     0.15800
C170        C  0.01631749  0.47756976  0.65074410    -0.18600
C171        C  0.03913659  0.03135351  0.64955012    -0.20500
C172        C  0.03633375  0.05660183  0.65047573    -0.13000
C173        C  0.00816090  0.05412696  0.65010650     0.03600
C174        C  0.48269020  0.02596107  0.64813835    -0.25200
H175        H  0.44261686  0.42552878  0.65386649     0.08700
H176        H  0.43793242  0.46973786  0.64917285     0.12300
H177        H  0.03806251  0.47956071  0.65164308     0.12300
H178        H  0.06111046  0.03390680  0.65012603     0.12000
H179        H  0.05628140  0.07818777  0.65171697     0.12600
H180        H  0.46090763  0.02390952  0.64823185     0.14500
C181        C  0.05113838  0.15141712  0.55805519    -0.05500
C182        C  0.03762858  0.15133728  0.52152722    -0.05400
C183        C  0.05008232  0.14996652  0.48488002    -0.23600
C184        C  0.07597722  0.14806930  0.48410713     0.18600
C185        C  0.09047717  0.14937218  0.52052724     0.15800
C186        C  0.07829200  0.15168672  0.55726838    -0.18600
C187        C  0.11588807  0.14653646  0.51966791    -0.20500
C188        C  0.12603078  0.14113139  0.48330974    -0.13000
C189        C  0.11133716  0.13916336  0.44710883     0.03600
C190        C  0.08675097  0.14344030  0.44768198    -0.25200
H191        H  0.51671353  0.15111133  0.52134787     0.08700
H192        H  0.03871343  0.14903419  0.45722833     0.12300
H193        H  0.08869900  0.15133658  0.58525526     0.12300
H194        H  0.12731153  0.14747830  0.54726356     0.12000
H195        H  0.14513127  0.13809069  0.48356197     0.12600
H196        H  0.07505920  0.14170301  0.41999673     0.14500
C197        C  0.14952116  0.05121266  0.09623744    -0.05500
C198        C  0.14972247  0.07822312  0.09440900    -0.05400
C199        C  0.14929584  0.09274824  0.12966135    -0.23600
C200        C  0.14905880  0.08068890  0.16734095     0.18600
C201        C  0.15026691  0.05424189  0.16944722     0.15800
C202        C  0.15032986  0.03961248  0.13393825    -0.18600
C203        C  0.15053057  0.04240027  0.20705061    -0.20500
C204        C  0.14911431  0.05633798  0.24227535    -0.13000
C205        C  0.14698194  0.08212803  0.24057196     0.03600
C206        C  0.14707968  0.09428627  0.20290311    -0.25200
H207        H  0.14860091  0.08732117  0.06570275     0.08700
H208        H  0.14845761  0.11303277  0.12744005     0.12300
H209        H  0.15008138  0.01873327  0.13563490     0.12300
H210        H  0.15147107  0.02216673  0.20922465     0.12000
H211        H  0.14881150  0.04640788  0.27092564     0.12600
H212        H  0.14549950  0.11420283  0.20127318     0.14500
C213        C  0.44482133  0.35122126  0.56101018    -0.05500
C214        C  0.45528997  0.34397941  0.52621931    -0.05400
C215        C  0.44281211  0.34280527  0.48873440    -0.23600
C216        C  0.42010157  0.34961875  0.48512252     0.18600
C217        C  0.40883090  0.35627956  0.51997372     0.15800
C218        C  0.42092368  0.35652171  0.55789243    -0.18600
C219        C  0.38668930  0.36393640  0.51594413    -0.20500
C220        C  0.37667880  0.36607724  0.47774682    -0.13000
C221        C  0.38827137  0.36014974  0.44285313     0.03600
C222        C  0.40947856  0.35117072  0.44702058    -0.25200
H223        H  0.97374174  0.33995509  0.52792747     0.08700
H224        H  0.45172724  0.33767382  0.46233810     0.12300
H225        H  0.41310146  0.36270920  0.58448188     0.12300
H226        H  0.37774730  0.36913743  0.54224735     0.12600
H227        H  0.36024281  0.37291238  0.47549162     0.12600
H228        H  0.41877679  0.34666218  0.42047387     0.14500
C229        C  0.44713632  0.45408326  0.33573765    -0.05500
C230        C  0.44758167  0.48097667  0.33029835    -0.05400
C231        C  0.47428512  0.00793876  0.33191389    -0.23600
C232        C  0.50099814  0.00854837  0.33983260     0.18600
C233        C  0.00079214  0.48167928  0.34634651     0.15800
C234        C  0.47389168  0.45454271  0.34366055    -0.18600
C235        C  0.02749675  0.48251006  0.35543734    -0.20500
C236        C  0.05419495  0.00963002  0.35721609    -0.13000
C237        C  0.05473828  0.03637385  0.34941849     0.03600
C238        C  0.02790615  0.03560093  0.34111068    -0.25200
H239        H  0.42723024  0.48109781  0.32418372     0.08700
H240        H  0.47402712  0.02833367  0.32703900     0.12300
H241        H  0.47365897  0.43388086  0.34845599     0.12300
H242        H  0.02777519  0.46218695  0.36088166     0.12000
H243        H  0.07454685  0.00960878  0.36368174     0.12600
H244        H  0.02794726  0.05607983  0.33550007     0.14500
C245        C  0.20993424  0.19115599  0.33637992    -0.05500
C246        C  0.23713923  0.19160036  0.33608903    -0.05400
C247        C  0.26401513  0.21845864  0.33379671    -0.23600
C248        C  0.26421466  0.24544413  0.33262555     0.18600
C249        C  0.23700005  0.24531002  0.33368515     0.15800
C250        C  0.21004412  0.21817951  0.33496311    -0.18600
C251        C  0.23724526  0.27233237  0.33384919    -0.20500
C252        C  0.26417039  0.29922024  0.33302756    -0.13000
C253        C  0.29136700  0.29963658  0.33126908     0.03600
C254        C  0.29116388  0.27254603  0.33087288    -0.25200
H255        H  0.23760413  0.17108484  0.33710081     0.08700
H256        H  0.28465541  0.21812661  0.33322441     0.12300
H257        H  0.18918730  0.21810868  0.33568855     0.12300
H258        H  0.21662067  0.27268493  0.33490868     0.12000
H259        H  0.26370459  0.31974806  0.33341276     0.12600
H260        H  0.31198490  0.27255212  0.33006541     0.14500
C261        C  0.35238965  0.45997383  0.10367090    -0.05500
C262        C  0.34646109  0.47140642  0.13858677    -0.05400
C263        C  0.34393944  0.45819415  0.17594822    -0.23600
C264        C  0.34816711  0.43377799  0.17930669     0.18600
C265        C  0.35330124  0.42148816  0.14427589     0.15800
C266        C  0.35476793  0.43430652  0.10649922    -0.18600
C267        C  0.35841285  0.39761010  0.14798281    -0.20500
C268        C  0.35973745  0.38691549  0.18605396    -0.13000
C269        C  0.35537033  0.39947049  0.22114942     0.03600
C270        C  0.34876364  0.42241699  0.21730770    -0.25200
H271        H  0.34454802  0.99112142  0.13708298     0.08700
H272        H  0.33992326  0.46786438  0.20246903     0.12300
H273        H  0.35979730  0.42559175  0.07979076     0.12300
H274        H  0.36236214  0.38783838  0.12151706     0.12000
H275        H  0.36464974  0.36910354  0.18805992     0.12600
H276        H  0.34548628  0.43246218  0.24402502     0.14500
O277        O  0.41779142  0.90249149  0.31980068    -0.74700
O278        O  0.34345780  0.82907178  0.31754293    -0.74700
O279        O  0.37281215  0.87523474  0.26544379    -0.74800
O280        O  0.38845853  0.85676002  0.37104431    -0.74800
O281        O  0.36556574  0.87904187  0.39836385    -0.74800
O282        O  0.35043515  0.89800260  0.29285094    -0.74700
O283        O  0.32070392  0.85172663  0.34418975    -0.74700
O284        O  0.39493750  0.92499763  0.34672622    -0.74800
Ni285      Ni  0.38135563  0.86503906  0.31739338     1.25400
Ni286      Ni  0.35705061  0.88917202  0.34647982     1.25400
C287        C  0.41860948  0.92579766  0.33397382     0.87500
C288        C  0.31986487  0.82820727  0.33083931     0.87400
C289        C  0.35948140  0.89016546  0.26171196     0.87400
C290        C  0.38005024  0.86527639  0.40216570     0.87600
O291        O  0.10642877  0.56715091  0.36484509    -0.74700
O292        O  0.18068169  0.64033503  0.35608025    -0.74700
O293        O  0.13512955  0.61740810  0.41002183    -0.74800
O294        O  0.15153928  0.58982013  0.31149012    -0.74800
O295        O  0.13026442  0.61069039  0.27694049    -0.74800
O296        O  0.11191892  0.63633060  0.37561516    -0.74700
O297        O  0.15805954  0.66057174  0.32323884    -0.74700
O298        O  0.08441106  0.58698779  0.32973240    -0.74800
Ni299      Ni  0.14432860  0.60306578  0.36187068     1.25400
Ni300      Ni  0.12045832  0.62441131  0.32514101     1.25400
C301        C  0.08322052  0.56490108  0.34818975     0.87500
C302        C  0.18153734  0.66262471  0.33861585     0.87400
C303        C  0.12019920  0.63084498  0.40910267     0.87400
C304        C  0.14304666  0.59515183  0.27805950     0.87600
O305        O  0.47274663  0.90121961  0.67857150    -0.74700
O306        O  0.47089324  0.82733265  0.68379089    -0.74700
O307        O  0.49641903  0.87815792  0.72935439    -0.74800
O308        O  0.44855364  0.85215072  0.63313313    -0.74800
O309        O  0.99001185  0.86953267  0.59658511    -0.74800
O310        O  0.03724741  0.89744775  0.69134239    -0.74700
O311        O  0.01287942  0.84600370  0.64821537    -0.74700
O312        O  0.01356685  0.92009414  0.64040656    -0.74800
Ni313      Ni  0.47075556  0.86392182  0.68271185     1.25400
Ni314      Ni  0.01491189  0.88382415  0.64288896     1.25400
C315        C  0.99274112  0.92245939  0.65773299     0.87500
C316        C  0.99119051  0.82420348  0.66653387     0.87400
C317        C  0.02486008  0.89337645  0.72586347     0.87400
C318        C  0.46173185  0.85744977  0.59887816     0.87600
O319        O  0.48438685  0.58263326  0.63776668    -0.74700
O320        O  0.48251172  0.65547686  0.64784706    -0.74700
O321        O  0.50606942  0.63310451  0.59458040    -0.74800
O322        O  0.45985767  0.60387120  0.69040510    -0.74800
O323        O  0.00115028  0.62435259  0.72719610    -0.74800
O324        O  0.04790150  0.65182206  0.63007256    -0.74700
O325        O  0.02476723  0.67505434  0.68248233    -0.74700
O326        O  0.02565369  0.60267034  0.67467978    -0.74800
Ni327      Ni  0.48168388  0.61818386  0.64142572     1.25400
Ni328      Ni  0.02625973  0.63928644  0.68004252     1.25400
C329        C  0.00577716  0.58101656  0.65427927     0.87500
C330        C  0.00401075  0.67758257  0.66602093     0.87400
C331        C  0.03441820  0.64591068  0.59616168     0.87400
C332        C  0.47274321  0.60842614  0.72447792     0.87600
O333        O  0.42485973  0.52496582  0.02370235    -0.74700
O334        O  0.35504659  0.53195069  0.01553979    -0.74700
O335        O  0.37457839  0.50551160  0.06784057    -0.74800
O336        O  0.40587113  0.55150564  0.97210516    -0.74800
O337        O  0.38294591  0.01037941  0.93497914    -0.74800
O338        O  0.35371865  0.96378171  0.03168779    -0.74700
O339        O  0.33256067  0.98965763  0.98070490    -0.74700
O340        O  0.40276614  0.98384375  0.98626630    -0.74800
Ni341      Ni  0.39074971  0.52994829  0.02110696     1.25400
Ni342      Ni  0.36710239  0.98549223  0.98199114     1.25400
C343        C  0.42511192  0.00307037  0.00637986     0.87500
C344        C  0.33217439  0.01174250  0.99710281     0.87400
C345        C  0.36012187  0.97712985  0.06580830     0.87400
C346        C  0.40025055  0.53857287  0.93779587     0.87600
O347        O  0.10229291  0.52545086  0.97945835    -0.74700
O348        O  0.17148759  0.51774096  0.97579480    -0.74700
O349        O  0.12116783  0.49679045  0.93004447    -0.74800
O350        O  0.15089671  0.54551612  0.02491697    -0.74800
O351        O  0.12924611  0.00480853  0.06278727    -0.74800
O352        O  0.09744335  0.95683665  0.96898828    -0.74700
O353        O  0.14825661  0.97644823  0.01229952    -0.74700
O354        O  0.07954830  0.98557258  0.01877766    -0.74800
Ni355      Ni  0.13745334  0.52275621  0.97606283     1.25400
Ni356      Ni  0.11298693  0.97946014  0.01702706     1.25400
C357        C  0.07978457  0.50721391  0.00029847     0.87500
C358        C  0.17143134  0.49598686  0.99354818     0.87400
C359        C  0.10289742  0.96891067  0.93425508     0.87400
C360        C  0.14367131  0.53307316  0.05953136     0.87600
C361        C  0.45128918  0.99951802  0.00955780    -0.05500
C362        C  0.44746277  0.97103907  0.01376578    -0.05400
C363        C  0.47200023  0.96702728  0.01490362    -0.23600
C364        C  0.50072540  0.99138094  0.01068294     0.18600
C365        C  0.00476402  0.52016388  0.00624099     0.15800
C366        C  0.48001852  0.52412853  0.00659037    -0.18600
C367        C  0.03340230  0.54433984  0.00041426    -0.20500
C368        C  0.05774205  0.53999498  0.99838315    -0.13000
C369        C  0.05395086  0.51152974  0.00308768     0.03600
C370        C  0.02539679  0.98733548  0.00980821    -0.25200
H371        H  0.42539237  0.95185266  0.01625501     0.08700
H372        H  0.46847446  0.94482672  0.01821136     0.12300
H373        H  0.48298452  0.54610164  0.00287030     0.12300
H374        H  0.03692191  0.56651362  0.99676795     0.12000
H375        H  0.07963495  0.55897956  0.99340864     0.12600
H376        H  0.02228659  0.96527510  0.01307320     0.14500
C377        C  0.19868733  0.49377783  0.99280226    -0.05500
C378        C  0.19688185  0.96602314  0.99460386    -0.05400
C379        C  0.22267051  0.96397038  0.99418071    -0.23600
C380        C  0.25075509  0.98969900  0.99304735     0.18600
C381        C  0.25282626  0.51776971  0.99189341     0.15800
C382        C  0.22680495  0.51959803  0.99103852    -0.18600
C383        C  0.28088816  0.54353389  0.99235310    -0.20500
C384        C  0.30665622  0.54153583  0.99437414    -0.13000
C385        C  0.30487082  0.01376315  0.99489566     0.03600
C386        C  0.27678928  0.98787573  0.99378428    -0.25200
H387        H  0.17546576  0.94587083  0.99590837     0.08700
H388        H  0.22065219  0.94227200  0.99528056     0.12300
H389        H  0.22843156  0.54114569  0.99015719     0.12300
H390        H  0.28289893  0.56523825  0.99167114     0.12000
H391        H  0.32805531  0.56173647  0.99506136     0.12600
H392        H  0.27519428  0.96634177  0.99462326     0.14500
C393        C  0.45439825  0.59364987  0.76050326    -0.05500
C394        C  0.42722906  0.56698090  0.75604699    -0.05400
C395        C  0.41074288  0.55117822  0.78966905    -0.23600
C396        C  0.42084807  0.56194294  0.82851126     0.18600
C397        C  0.44753630  0.58932039  0.83333685     0.15800
C398        C  0.46430522  0.60484390  0.79936482    -0.18600
C399        C  0.45726204  0.60045271  0.87212821    -0.20500
C400        C  0.44119596  0.58431748  0.90579517    -0.13000
C401        C  0.41523229  0.55650450  0.90150374     0.03600
C402        C  0.40501252  0.54557816  0.86257291    -0.25200
H403        H  0.41914893  0.55777085  0.72644020     0.08700
H404        H  0.39028472  0.53034978  0.78527684     0.12300
H405        H  0.48509063  0.62546690  0.80315186     0.12300
H406        H  0.47752922  0.62146315  0.87647740     0.12000
H407        H  0.44968563  0.59327039  0.93536724     0.12600
H408        H  0.38495824  0.52428473  0.85878600     0.14500
C409        C  0.04399844  0.90806347  0.76135433    -0.05500
C410        C  0.07347930  0.93113613  0.75548948    -0.05400
C411        C  0.09116532  0.94736873  0.78799714    -0.23600
C412        C  0.07994596  0.94067596  0.82725022     0.18600
C413        C  0.05072432  0.91686457  0.83374824     0.15800
C414        C  0.03285199  0.90087903  0.80080081    -0.18600
C415        C  0.03973562  0.90973751  0.87309227    -0.20500
C416        C  0.05730178  0.92619876  0.90554658    -0.13000
C417        C  0.08605755  0.95044997  0.89939049     0.03600
C418        C  0.09729594  0.95758899  0.86003523    -0.25200
H419        H  0.08270353  0.93732774  0.72548519     0.08700
H420        H  0.11352548  0.96538903  0.78235485     0.12300
H421        H  0.01025190  0.88312680  0.80583799     0.12300
H422        H  0.01745382  0.89158603  0.87877407     0.12000
H423        H  0.04797169  0.92047615  0.93556460     0.12600
H424        H  0.11942504  0.97622793  0.85497025     0.14500
C425        C  0.98879475  0.79469503  0.66708780    -0.05500
C426        C  0.46061282  0.76893138  0.66722704    -0.05400
C427        C  0.45777610  0.74080995  0.66657365    -0.23600
C428        C  0.48309188  0.73786917  0.66664795     0.18600
C429        C  0.01155711  0.76366935  0.66768538     0.15800
C430        C  0.01424329  0.79189218  0.66722748    -0.18600
C431        C  0.03685700  0.76078996  0.66923586    -0.20500
C432        C  0.03406744  0.73272988  0.66937637    -0.13000
C433        C  0.00597391  0.70691561  0.66717527     0.03600
C434        C  0.48047738  0.70964329  0.66576931    -0.25200
H435        H  0.44067969  0.77056357  0.66701392     0.08700
H436        H  0.43577060  0.72136793  0.66606085     0.12300
H437        H  0.03606053  0.81163395  0.66758602     0.12300
H438        H  0.05883632  0.78024901  0.67034527     0.12000
H439        H  0.05406234  0.73122982  0.67037886     0.12600
H440        H  0.45870428  0.68988316  0.66452118     0.14500
C441        C  0.99074387  0.94948158  0.65317750    -0.05500
C442        C  0.46261758  0.94706313  0.65239762    -0.05400
C443        C  0.45989649  0.97226307  0.64960165    -0.23600
C444        C  0.48529828  0.00043606  0.64851588     0.18600
C445        C  0.01376056  0.50312369  0.64919570     0.15800
C446        C  0.01631752  0.97756978  0.65074410    -0.18600
C447        C  0.03913655  0.53135347  0.64955012    -0.20500
C448        C  0.03633374  0.55660178  0.65047573    -0.13000
C449        C  0.00816090  0.55412694  0.65010651     0.03600
C450        C  0.48269022  0.52596108  0.64813838    -0.25200
H451        H  0.44261689  0.92552877  0.65386648     0.08700
H452        H  0.43793246  0.96973785  0.64917285     0.12300
H453        H  0.03806255  0.97956073  0.65164308     0.12300
H454        H  0.06111043  0.53390674  0.65012603     0.12000
H455        H  0.05628141  0.57818772  0.65171696     0.12600
H456        H  0.46090765  0.52390955  0.64823194     0.14500
C457        C  0.05113838  0.65141712  0.55805520    -0.05500
C458        C  0.03762861  0.65133734  0.52152724    -0.05400
C459        C  0.05008232  0.64996653  0.48488002    -0.23600
C460        C  0.07597724  0.64806935  0.48410712     0.18600
C461        C  0.09047715  0.64937217  0.52052722     0.15800
C462        C  0.07829197  0.65168665  0.55726840    -0.18600
C463        C  0.11588804  0.64653646  0.51966793    -0.20500
C464        C  0.12603080  0.64113144  0.48330976    -0.13000
C465        C  0.11133719  0.63916340  0.44710884     0.03600
C466        C  0.08675102  0.64344039  0.44768196    -0.25200
H467        H  0.51671360  0.65111142  0.52134786     0.08700
H468        H  0.03871339  0.64903413  0.45722834     0.12300
H469        H  0.08869893  0.65133646  0.58525526     0.12300
H470        H  0.12731144  0.64747826  0.54726358     0.12000
H471        H  0.14513133  0.63809080  0.48356203     0.12600
H472        H  0.07505927  0.64170313  0.41999671     0.14500
C473        C  0.14952120  0.55121269  0.09623744    -0.05500
C474        C  0.14972252  0.57822316  0.09440899    -0.05400
C475        C  0.14929588  0.59274826  0.12966134    -0.23600
C476        C  0.14905885  0.58068895  0.16734095     0.18600
C477        C  0.15026698  0.55424193  0.16944722     0.15800
C478        C  0.15032989  0.53961251  0.13393825    -0.18600
C479        C  0.15053060  0.54240030  0.20705061    -0.20500
C480        C  0.14911438  0.55633803  0.24227535    -0.13000
C481        C  0.14698192  0.58212803  0.24057196     0.03600
C482        C  0.14707962  0.59428624  0.20290310    -0.25200
H483        H  0.14860094  0.58732118  0.06570276     0.08700
H484        H  0.14845757  0.61303278  0.12744002     0.12300
H485        H  0.15008132  0.51873326  0.13563492     0.12300
H486        H  0.15147104  0.52216672  0.20922465     0.12000
H487        H  0.14881170  0.54640799  0.27092564     0.12600
H488        H  0.14549938  0.61420278  0.20127319     0.14500
C489        C  0.44482128  0.85122123  0.56101020    -0.05500
C490        C  0.45528994  0.84397937  0.52621934    -0.05400
C491        C  0.44281208  0.84280523  0.48873442    -0.23600
C492        C  0.42010156  0.84961875  0.48512252     0.18600
C493        C  0.40883089  0.85627957  0.51997371     0.15800
C494        C  0.42092364  0.85652170  0.55789244    -0.18600
C495        C  0.38668926  0.86393637  0.51594410    -0.20500
C496        C  0.37667875  0.86607716  0.47774680    -0.13000
C497        C  0.38827134  0.86014970  0.44285311     0.03600
C498        C  0.40947856  0.85117071  0.44702058    -0.25200
H499        H  0.97374175  0.83995514  0.52792745     0.08700
H500        H  0.45172724  0.83767381  0.46233813     0.12300
H501        H  0.41310140  0.86270916  0.58448186     0.12300
H502        H  0.37774721  0.86913736  0.54224732     0.12600
H503        H  0.36024272  0.87291225  0.47549158     0.12600
H504        H  0.41877682  0.84666218  0.42047388     0.14500
C505        C  0.44713628  0.95408326  0.33573778    -0.05500
C506        C  0.44758168  0.98097668  0.33029842    -0.05400
C507        C  0.47428511  0.50793873  0.33191391    -0.23600
C508        C  0.50099814  0.50854834  0.33983259     0.18600
C509        C  0.00079214  0.98167931  0.34634653     0.15800
C510        C  0.47389167  0.95454273  0.34366059    -0.18600
C511        C  0.02749675  0.98251011  0.35543734    -0.20500
C512        C  0.05419497  0.50962997  0.35721611    -0.13000
C513        C  0.05473830  0.53637380  0.34941848     0.03600
C514        C  0.02790617  0.53560089  0.34111067    -0.25200
H515        H  0.42723023  0.98109782  0.32418374     0.08700
H516        H  0.47402708  0.52833364  0.32703908     0.12300
H517        H  0.47365897  0.93388086  0.34845594     0.12300
H518        H  0.02777522  0.96218700  0.36088168     0.12000
H519        H  0.07454686  0.50960872  0.36368179     0.12600
H520        H  0.02794728  0.55607979  0.33550004     0.14500
C521        C  0.20993423  0.69115596  0.33637992    -0.05500
C522        C  0.23713921  0.69160031  0.33608903    -0.05400
C523        C  0.26401512  0.71845860  0.33379674    -0.23600
C524        C  0.26421464  0.74544411  0.33262562     0.18600
C525        C  0.23700005  0.74531001  0.33368526     0.15800
C526        C  0.21004411  0.71817949  0.33496317    -0.18600
C527        C  0.23724526  0.77233239  0.33384925    -0.20500
C528        C  0.26417042  0.79922025  0.33302756    -0.13000
C529        C  0.29136700  0.79963657  0.33126908     0.03600
C530        C  0.29116385  0.77254601  0.33087290    -0.25200
H531        H  0.23760412  0.67108480  0.33710083     0.08700
H532        H  0.28465538  0.71812657  0.33322446     0.12300
H533        H  0.18918731  0.71810866  0.33568855     0.12300
H534        H  0.21662068  0.77268494  0.33490869     0.12000
H535        H  0.26370465  0.81974812  0.33341271     0.12600
H536        H  0.31198485  0.77255207  0.33006539     0.14500
C537        C  0.35238975  0.95997385  0.10367090    -0.05500
C538        C  0.34646114  0.97140641  0.13858675    -0.05400
C539        C  0.34393936  0.95819408  0.17594817    -0.23600
C540        C  0.34816703  0.93377793  0.17930667     0.18600
C541        C  0.35330117  0.92148809  0.14427586     0.15800
C542        C  0.35476796  0.93430650  0.10649921    -0.18600
C543        C  0.35841281  0.89761007  0.14798278    -0.20500
C544        C  0.35973753  0.88691553  0.18605393    -0.13000
C545        C  0.35537038  0.89947052  0.22114941     0.03600
C546        C  0.34876365  0.92241698  0.21730768    -0.25200
H547        H  0.34454794  0.49112140  0.13708301     0.08700
H548        H  0.33992315  0.96786431  0.20246898     0.12300
H549        H  0.35979738  0.92559173  0.07979076     0.12300
H550        H  0.36236207  0.88783834  0.12151702     0.12000
H551        H  0.36464989  0.86910364  0.18805987     0.12600
H552        H  0.34548630  0.93246220  0.24402503     0.14500
O553        O  0.91779147  0.40249151  0.31980066    -0.74700
O554        O  0.84345783  0.32907183  0.31754295    -0.74700
O555        O  0.87281216  0.37523481  0.26544384    -0.74800
O556        O  0.88845864  0.35676009  0.37104430    -0.74800
O557        O  0.86556583  0.37904192  0.39836383    -0.74800
O558        O  0.85043512  0.39800264  0.29285098    -0.74700
O559        O  0.82070392  0.35172665  0.34418978    -0.74700
O560        O  0.89493753  0.42499765  0.34672618    -0.74800
Ni561      Ni  0.88135568  0.36503911  0.31739338     1.25400
Ni562      Ni  0.85705063  0.38917205  0.34647984     1.25400
C563        C  0.91860951  0.42579768  0.33397376     0.87500
C564        C  0.81986488  0.32820729  0.33083932     0.87400
C565        C  0.85948136  0.39016549  0.26171201     0.87400
C566        C  0.88005033  0.36527646  0.40216568     0.87600
O567        O  0.60642873  0.06715096  0.36484511    -0.74700
O568        O  0.68068166  0.14033504  0.35608024    -0.74700
O569        O  0.63512953  0.11740808  0.41002185    -0.74800
O570        O  0.65153922  0.08982006  0.31149016    -0.74800
O571        O  0.63026445  0.11069038  0.27694048    -0.74800
O572        O  0.61191902  0.13633068  0.37561515    -0.74700
O573        O  0.65805955  0.16057177  0.32323880    -0.74700
O574        O  0.58441106  0.08698785  0.32973240    -0.74800
Ni575      Ni  0.64432856  0.10306577  0.36187069     1.25400
Ni576      Ni  0.62045835  0.12441134  0.32514100     1.25400
C577        C  0.58322050  0.06490114  0.34818976     0.87500
C578        C  0.68153733  0.16262474  0.33861585     0.87400
C579        C  0.62019923  0.13084499  0.40910268     0.87400
C580        C  0.64304666  0.09515180  0.27805951     0.87600
O581        O  0.97274662  0.40121961  0.67857150    -0.74700
O582        O  0.97089328  0.32733268  0.68379091    -0.74700
O583        O  0.99641901  0.37815794  0.72935438    -0.74800
O584        O  0.94855364  0.35215073  0.63313313    -0.74800
O585        O  0.49001183  0.36953264  0.59658514    -0.74800
O586        O  0.53724740  0.39744777  0.69134240    -0.74700
O587        O  0.51287946  0.34600374  0.64821537    -0.74700
O588        O  0.51356680  0.42009411  0.64040654    -0.74800
Ni589      Ni  0.97075557  0.36392184  0.68271185     1.25400
Ni590      Ni  0.51491188  0.38382415  0.64288897     1.25400
C591        C  0.49274107  0.42245938  0.65773300     0.87500
C592        C  0.49119055  0.32420352  0.66653388     0.87400
C593        C  0.52486006  0.39337641  0.72586348     0.87400
C594        C  0.96173187  0.35744978  0.59887816     0.87600
O595        O  0.98438679  0.08263325  0.63776670    -0.74700
O596        O  0.98251177  0.15547688  0.64784705    -0.74700
O597        O  0.00606944  0.13310445  0.59458042    -0.74800
O598        O  0.95985765  0.10387127  0.69040510    -0.74800
O599        O  0.50115026  0.12435265  0.72719606    -0.74800
O600        O  0.54790151  0.15182208  0.63007255    -0.74700
O601        O  0.52476728  0.17505437  0.68248227    -0.74700
O602        O  0.52565367  0.10267035  0.67467980    -0.74800
Ni603      Ni  0.98168388  0.11818387  0.64142573     1.25400
Ni604      Ni  0.52625974  0.13928647  0.68004251     1.25400
C605        C  0.50577713  0.08101657  0.65427928     0.87500
C606        C  0.50401076  0.17758258  0.66602094     0.87400
C607        C  0.53441820  0.14591069  0.59616168     0.87400
C608        C  0.97274320  0.10842619  0.72447790     0.87600
O609        O  0.92485967  0.02496576  0.02370233    -0.74700
O610        O  0.85504658  0.03195070  0.01553983    -0.74700
O611        O  0.87457842  0.00551163  0.06784063    -0.74800
O612        O  0.90587114  0.05150555  0.97210515    -0.74800
O613        O  0.88294588  0.51037948  0.93497918    -0.74800
O614        O  0.85371867  0.46378167  0.03168776    -0.74700
O615        O  0.83256063  0.48965759  0.98070494    -0.74700
O616        O  0.90276615  0.48384383  0.98626627    -0.74800
Ni617      Ni  0.89074969  0.02994826  0.02110696     1.25400
Ni618      Ni  0.86710238  0.48549226  0.98199114     1.25400
C619        C  0.92511192  0.50307044  0.00637986     0.87500
C620        C  0.83217435  0.51174247  0.99710282     0.87400
C621        C  0.86012182  0.47712981  0.06580826     0.87400
C622        C  0.90025055  0.03857280  0.93779584     0.87600
O623        O  0.60229291  0.02545085  0.97945835    -0.74700
O624        O  0.67148763  0.01774101  0.97579477    -0.74700
O625        O  0.62116786  0.99679047  0.93004446    -0.74800
O626        O  0.65089671  0.04551611  0.02491699    -0.74800
O627        O  0.62924610  0.50480855  0.06278725    -0.74800
O628        O  0.59744326  0.45683663  0.96898827    -0.74700
O629        O  0.64825654  0.47644816  0.01229949    -0.74700
O630        O  0.57954829  0.48557261  0.01877770    -0.74800
Ni631      Ni  0.63745335  0.02275623  0.97606282     1.25400
Ni632      Ni  0.61298688  0.47946012  0.01702707     1.25400
C633        C  0.57978456  0.00721388  0.00029845     0.87500
C634        C  0.67143138  0.99598692  0.99354817     0.87400
C635        C  0.60289737  0.46891067  0.93425509     0.87400
C636        C  0.64367130  0.03307315  0.05953138     0.87600
C637        C  0.95128918  0.49951805  0.00955779    -0.05500
C638        C  0.94746276  0.47103911  0.01376578    -0.05400
C639        C  0.97200021  0.46702729  0.01490356    -0.23600
C640        C  0.00072538  0.49138092  0.01068276     0.18600
C641        C  0.50476404  0.02016390  0.00624118     0.15800
C642        C  0.98001850  0.02412850  0.00659044    -0.18600
C643        C  0.53340233  0.04433986  0.00041434    -0.20500
C644        C  0.55774206  0.03999497  0.99838317    -0.13000
C645        C  0.55395086  0.01152973  0.00308768     0.03600
C646        C  0.52539680  0.48733550  0.00980813    -0.25200
H647        H  0.92539236  0.45185270  0.01625506     0.08700
H648        H  0.96847439  0.44482671  0.01821141     0.12300
H649        H  0.98298450  0.04610162  0.00287026     0.12300
H650        H  0.53692195  0.06651363  0.99676793     0.12000
H651        H  0.57963499  0.05897954  0.99340861     0.12600
H652        H  0.52228660  0.46527510  0.01307322     0.14500
C653        C  0.69868733  0.99377786  0.99280225    -0.05500
C654        C  0.69688184  0.46602317  0.99460386    -0.05400
C655        C  0.72267051  0.46397043  0.99418071    -0.23600
C656        C  0.75075509  0.48969904  0.99304735     0.18600
C657        C  0.75282624  0.01776971  0.99189340     0.15800
C658        C  0.72680495  0.01959805  0.99103852    -0.18600
C659        C  0.78088813  0.04353390  0.99235311    -0.20500
C660        C  0.80665619  0.04153584  0.99437417    -0.13000
C661        C  0.80487081  0.51376314  0.99489565     0.03600
C662        C  0.77678926  0.48787573  0.99378428    -0.25200
H663        H  0.67546577  0.44587086  0.99590837     0.08700
H664        H  0.72065217  0.44227203  0.99528056     0.12300
H665        H  0.72843159  0.04114573  0.99015719     0.12300
H666        H  0.78289890  0.06523825  0.99167118     0.12000
H667        H  0.82805525  0.06173648  0.99506145     0.12600
H668        H  0.77519424  0.46634177  0.99462326     0.14500
C669        C  0.95439823  0.09364989  0.76050323    -0.05500
C670        C  0.92722905  0.06698091  0.75604696    -0.05400
C671        C  0.91074286  0.05117820  0.78966903    -0.23600
C672        C  0.92084806  0.06194294  0.82851124     0.18600
C673        C  0.94753629  0.08932038  0.83333682     0.15800
C674        C  0.96430521  0.10484390  0.79936478    -0.18600
C675        C  0.95726204  0.10045270  0.87212817    -0.20500
C676        C  0.94119596  0.08431746  0.90579514    -0.13000
C677        C  0.91523229  0.05650448  0.90150373     0.03600
C678        C  0.90501248  0.04557818  0.86257290    -0.25200
H679        H  0.91914891  0.05777085  0.72644018     0.08700
H680        H  0.89028476  0.03034976  0.78527684     0.12300
H681        H  0.98509059  0.12546692  0.80315180     0.12300
H682        H  0.97752921  0.12146317  0.87647733     0.12000
H683        H  0.94968566  0.09327035  0.93536721     0.12600
H684        H  0.88495820  0.02428480  0.85878599     0.14500
C685        C  0.54399839  0.40806337  0.76135439    -0.05500
C686        C  0.57347924  0.43113606  0.75548952    -0.05400
C687        C  0.59116525  0.44736871  0.78799716    -0.23600
C688        C  0.57994591  0.44067599  0.82725023     0.18600
C689        C  0.55072425  0.41686460  0.83374827     0.15800
C690        C  0.53285195  0.40087899  0.80080087    -0.18600
C691        C  0.53973558  0.40973757  0.87309228    -0.20500
C692        C  0.55730173  0.42619883  0.90554656    -0.13000
C693        C  0.58605753  0.45045000  0.89939048     0.03600
C694        C  0.59729593  0.45758899  0.86003524    -0.25200
H695        H  0.58270347  0.43732761  0.72548526     0.08700
H696        H  0.61352542  0.46538900  0.78235483     0.12300
H697        H  0.51025184  0.38312670  0.80583808     0.12300
H698        H  0.51745377  0.39158609  0.87877410     0.12000
H699        H  0.54797165  0.42047623  0.93556458     0.12600
H700        H  0.61942508  0.47622786  0.85497027     0.14500
C701        C  0.48879477  0.29469506  0.66708782    -0.05500
C702        C  0.96061285  0.26893142  0.66722705    -0.05400
C703        C  0.95777611  0.24080997  0.66657365    -0.23600
C704        C  0.98309187  0.23786917  0.66664795     0.18600
C705        C  0.51155707  0.26366933  0.66768538     0.15800
C706        C  0.51424328  0.29189218  0.66722749    -0.18600
C707        C  0.53685695  0.26078993  0.66923586    -0.20500
C708        C  0.53406738  0.23272985  0.66937637    -0.13000
C709        C  0.50597387  0.20691559  0.66717528     0.03600
C710        C  0.98047737  0.20964326  0.66576931    -0.25200
H711        H  0.94067973  0.27056362  0.66701392     0.08700
H712        H  0.93577062  0.22136797  0.66606085     0.12300
H713        H  0.53606054  0.31163392  0.66758602     0.12300
H714        H  0.55883625  0.28024896  0.67034527     0.12000
H715        H  0.55406229  0.23122979  0.67037886     0.12600
H716        H  0.95870428  0.18988313  0.66452117     0.14500
C717        C  0.49074385  0.44948158  0.65317752    -0.05500
C718        C  0.96261755  0.44706312  0.65239762    -0.05400
C719        C  0.95989644  0.47226307  0.64960166    -0.23600
C720        C  0.98529826  0.50043605  0.64851588     0.18600
C721        C  0.51376060  0.00312372  0.64919571     0.15800
C722        C  0.51631749  0.47756976  0.65074410    -0.18600
C723        C  0.53913657  0.03135352  0.64955012    -0.20500
C724        C  0.53633373  0.05660182  0.65047574    -0.13000
C725        C  0.50816087  0.05412695  0.65010652     0.03600
C726        C  0.98269022  0.02596108  0.64813834    -0.25200
H727        H  0.94261685  0.42552877  0.65386648     0.08700
H728        H  0.93793243  0.46973784  0.64917285     0.12300
H729        H  0.53806252  0.47956071  0.65164308     0.12300
H730        H  0.56111047  0.03390682  0.65012603     0.12000
H731        H  0.55628136  0.07818778  0.65171697     0.12600
H732        H  0.96090766  0.02390953  0.64823185     0.14500
C733        C  0.55113836  0.15141713  0.55805519    -0.05500
C734        C  0.53762856  0.15133729  0.52152723    -0.05400
C735        C  0.55008229  0.14996651  0.48488001    -0.23600
C736        C  0.57597720  0.14806929  0.48410711     0.18600
C737        C  0.59047713  0.14937217  0.52052722     0.15800
C738        C  0.57829197  0.15168672  0.55726837    -0.18600
C739        C  0.61588803  0.14653646  0.51966792    -0.20500
C740        C  0.62603075  0.14113139  0.48330976    -0.13000
C741        C  0.61133716  0.13916336  0.44710883     0.03600
C742        C  0.58675096  0.14344030  0.44768196    -0.25200
H743        H  0.01671355  0.15111132  0.52134785     0.08700
H744        H  0.53871340  0.14903419  0.45722834     0.12300
H745        H  0.58869897  0.15133659  0.58525526     0.12300
H746        H  0.62731146  0.14747830  0.54726358     0.12000
H747        H  0.64513126  0.13809071  0.48356205     0.12600
H748        H  0.57505921  0.14170302  0.41999671     0.14500
C749        C  0.64952115  0.05121266  0.09623744    -0.05500
C750        C  0.64972248  0.07822313  0.09440900    -0.05400
C751        C  0.64929577  0.09274821  0.12966135    -0.23600
C752        C  0.64905880  0.08068890  0.16734096     0.18600
C753        C  0.65026691  0.05424189  0.16944722     0.15800
C754        C  0.65032980  0.03961245  0.13393825    -0.18600
C755        C  0.65053061  0.04240028  0.20705060    -0.20500
C756        C  0.64911435  0.05633799  0.24227535    -0.13000
C757        C  0.64698198  0.08212803  0.24057197     0.03600
C758        C  0.64707972  0.09428628  0.20290312    -0.25200
H759        H  0.64860097  0.08732121  0.06570275     0.08700
H760        H  0.64845748  0.11303271  0.12744005     0.12300
H761        H  0.65008126  0.01873322  0.13563491     0.12300
H762        H  0.65147110  0.02216674  0.20922462     0.12000
H763        H  0.64881154  0.04640788  0.27092564     0.12600
H764        H  0.64549953  0.11420284  0.20127321     0.14500
C765        C  0.94482131  0.35122125  0.56101019    -0.05500
C766        C  0.95528997  0.34397939  0.52621932    -0.05400
C767        C  0.94281212  0.34280527  0.48873441    -0.23600
C768        C  0.92010159  0.34961876  0.48512251     0.18600
C769        C  0.90883091  0.35627957  0.51997372     0.15800
C770        C  0.92092369  0.35652171  0.55789243    -0.18600
C771        C  0.88668932  0.36393641  0.51594412    -0.20500
C772        C  0.87667882  0.36607724  0.47774682    -0.13000
C773        C  0.88827140  0.36014975  0.44285312     0.03600
C774        C  0.90947858  0.35117072  0.44702058    -0.25200
H775        H  0.47374176  0.33995511  0.52792745     0.08700
H776        H  0.95172725  0.33767383  0.46233809     0.12300
H777        H  0.91310147  0.36270921  0.58448188     0.12300
H778        H  0.87774732  0.36913743  0.54224735     0.12600
H779        H  0.86024284  0.37291236  0.47549162     0.12600
H780        H  0.91877682  0.34666217  0.42047387     0.14500
C781        C  0.94713629  0.45408326  0.33573766    -0.05500
C782        C  0.94758166  0.48097668  0.33029834    -0.05400
C783        C  0.97428510  0.00793877  0.33191388    -0.23600
C784        C  0.00099812  0.00854837  0.33983259     0.18600
C785        C  0.50079216  0.48167928  0.34634651     0.15800
C786        C  0.97389165  0.45454271  0.34366055    -0.18600
C787        C  0.52749678  0.48251007  0.35543734    -0.20500
C788        C  0.55419499  0.00963003  0.35721609    -0.13000
C789        C  0.55473830  0.03637385  0.34941848     0.03600
C790        C  0.52790617  0.03560092  0.34111068    -0.25200
H791        H  0.92723023  0.48109783  0.32418369     0.08700
H792        H  0.97402711  0.02833368  0.32703900     0.12300
H793        H  0.97365892  0.43388084  0.34845596     0.12300
H794        H  0.52777523  0.46218696  0.36088168     0.12000
H795        H  0.57454689  0.00960879  0.36368174     0.12600
H796        H  0.52794727  0.05607982  0.33550007     0.14500
C797        C  0.70993423  0.19115598  0.33637992    -0.05500
C798        C  0.73713922  0.19160036  0.33608903    -0.05400
C799        C  0.76401513  0.21845864  0.33379670    -0.23600
C800        C  0.76421464  0.24544414  0.33262555     0.18600
C801        C  0.73700003  0.24531001  0.33368515     0.15800
C802        C  0.71004411  0.21817950  0.33496312    -0.18600
C803        C  0.73724524  0.27233237  0.33384919    -0.20500
C804        C  0.76417039  0.29922024  0.33302755    -0.13000
C805        C  0.79136699  0.29963658  0.33126907     0.03600
C806        C  0.79116386  0.27254603  0.33087288    -0.25200
H807        H  0.73760413  0.17108484  0.33710081     0.08700
H808        H  0.78465540  0.21812663  0.33322441     0.12300
H809        H  0.68918729  0.21810866  0.33568855     0.12300
H810        H  0.71662065  0.27268493  0.33490869     0.12000
H811        H  0.76370459  0.31974808  0.33341276     0.12600
H812        H  0.81198487  0.27255211  0.33006542     0.14500
C813        C  0.85238969  0.45997383  0.10367090    -0.05500
C814        C  0.84646114  0.47140643  0.13858676    -0.05400
C815        C  0.84393947  0.45819416  0.17594820    -0.23600
C816        C  0.84816712  0.43377799  0.17930668     0.18600
C817        C  0.85330127  0.42148817  0.14427588     0.15800
C818        C  0.85476797  0.43430652  0.10649922    -0.18600
C819        C  0.85841289  0.39761011  0.14798282    -0.20500
C820        C  0.85973748  0.38691551  0.18605398    -0.13000
C821        C  0.85537029  0.39947048  0.22114943     0.03600
C822        C  0.84876359  0.42241695  0.21730768    -0.25200
H823        H  0.84454784  0.99112133  0.13708300     0.08700
H824        H  0.83992328  0.46786439  0.20246902     0.12300
H825        H  0.85979734  0.42559175  0.07979076     0.12300
H826        H  0.86236219  0.38783839  0.12151708     0.12000
H827        H  0.86464978  0.36910357  0.18805997     0.12600
H828        H  0.84548615  0.43246212  0.24402500     0.14500
O829        O  0.91779145  0.90249149  0.31980068    -0.74700
O830        O  0.84345778  0.82907181  0.31754294    -0.74700
O831        O  0.87281217  0.87523475  0.26544378    -0.74800
O832        O  0.88845855  0.85676002  0.37104431    -0.74800
O833        O  0.86556576  0.87904187  0.39836384    -0.74800
O834        O  0.85043518  0.89800260  0.29285094    -0.74700
O835        O  0.82070389  0.85172665  0.34418976    -0.74700
O836        O  0.89493751  0.92499761  0.34672622    -0.74800
Ni837      Ni  0.88135564  0.86503906  0.31739337     1.25400
Ni838      Ni  0.85705062  0.88917202  0.34647982     1.25400
C839        C  0.91860950  0.92579766  0.33397381     0.87500
C840        C  0.81986485  0.82820729  0.33083932     0.87400
C841        C  0.85948140  0.89016545  0.26171196     0.87400
C842        C  0.88005026  0.86527640  0.40216569     0.87600
O843        O  0.60642878  0.56715096  0.36484511    -0.74700
O844        O  0.68068173  0.64033504  0.35608024    -0.74700
O845        O  0.63512960  0.61740813  0.41002183    -0.74800
O846        O  0.65153932  0.58982014  0.31149013    -0.74800
O847        O  0.63026446  0.61069039  0.27694050    -0.74800
O848        O  0.61191895  0.63633061  0.37561515    -0.74700
O849        O  0.65805956  0.66057173  0.32323884    -0.74700
O850        O  0.58441107  0.58698781  0.32973237    -0.74800
Ni851      Ni  0.64432864  0.60306580  0.36187069     1.25400
Ni852      Ni  0.62045834  0.62441131  0.32514100     1.25400
C853        C  0.58322054  0.56490111  0.34818975     0.87500
C854        C  0.68153736  0.66262472  0.33861585     0.87400
C855        C  0.62019922  0.63084498  0.40910267     0.87400
C856        C  0.64304670  0.59515183  0.27805950     0.87600
O857        O  0.97274667  0.90121961  0.67857145    -0.74700
O858        O  0.97089322  0.82733265  0.68379092    -0.74700
O859        O  0.99641903  0.87815797  0.72935437    -0.74800
O860        O  0.94855368  0.85215072  0.63313312    -0.74800
O861        O  0.49001181  0.86953266  0.59658512    -0.74800
O862        O  0.53724739  0.89744782  0.69134235    -0.74700
O863        O  0.51287944  0.84600374  0.64821538    -0.74700
O864        O  0.51356676  0.92009411  0.64040652    -0.74800
Ni865      Ni  0.97075559  0.86392184  0.68271183     1.25400
Ni866      Ni  0.51491184  0.88382416  0.64288896     1.25400
C867        C  0.49274106  0.92245938  0.65773301     0.87500
C868        C  0.49119054  0.82420350  0.66653388     0.87400
C869        C  0.52486009  0.89337645  0.72586345     0.87400
C870        C  0.96173189  0.85744978  0.59887815     0.87600
O871        O  0.98438685  0.58263325  0.63776667    -0.74700
O872        O  0.98251174  0.65547686  0.64784702    -0.74700
O873        O  0.00606944  0.63310447  0.59458039    -0.74800
O874        O  0.95985771  0.60387122  0.69040510    -0.74800
O875        O  0.50115026  0.62435262  0.72719609    -0.74800
O876        O  0.54790148  0.65182202  0.63007255    -0.74700
O877        O  0.52476725  0.67505434  0.68248230    -0.74700
O878        O  0.52565370  0.60267034  0.67467978    -0.74800
Ni879      Ni  0.98168390  0.61818386  0.64142571     1.25400
Ni880      Ni  0.52625972  0.63928644  0.68004251     1.25400
C881        C  0.50577718  0.58101656  0.65427927     0.87500
C882        C  0.50401075  0.67758257  0.66602093     0.87400
C883        C  0.53441818  0.64591068  0.59616168     0.87400
C884        C  0.97274324  0.60842615  0.72447792     0.87600
O885        O  0.92485970  0.52496582  0.02370236    -0.74700
O886        O  0.85504657  0.53195069  0.01553980    -0.74700
O887        O  0.87457840  0.50551160  0.06784057    -0.74800
O888        O  0.90587114  0.55150564  0.97210516    -0.74800
O889        O  0.88294582  0.01037942  0.93497913    -0.74800
O890        O  0.85371861  0.96378171  0.03168778    -0.74700
O891        O  0.83256062  0.98965762  0.98070492    -0.74700
O892        O  0.90276610  0.98384377  0.98626628    -0.74800
Ni893      Ni  0.89074969  0.52994830  0.02110696     1.25400
Ni894      Ni  0.86710234  0.98549224  0.98199114     1.25400
C895        C  0.92511188  0.00307038  0.00637985     0.87500
C896        C  0.83217436  0.01174250  0.99710282     0.87400
C897        C  0.86012180  0.97712985  0.06580830     0.87400
C898        C  0.90025059  0.53857287  0.93779587     0.87600
O899        O  0.60229292  0.52545086  0.97945835    -0.74700
O900        O  0.67148758  0.51774096  0.97579480    -0.74700
O901        O  0.62116787  0.49679045  0.93004448    -0.74800
O902        O  0.65089675  0.54551612  0.02491697    -0.74800
O903        O  0.62924616  0.00480853  0.06278727    -0.74800
O904        O  0.59744339  0.95683665  0.96898827    -0.74700
O905        O  0.64825664  0.97644824  0.01229952    -0.74700
O906        O  0.57954832  0.98557258  0.01877766    -0.74800
Ni907      Ni  0.63745336  0.52275621  0.97606283     1.25400
Ni908      Ni  0.61298696  0.97946014  0.01702706     1.25400
C909        C  0.57978457  0.50721391  0.00029846     0.87500
C910        C  0.67143130  0.49598686  0.99354818     0.87400
C911        C  0.60289742  0.96891067  0.93425508     0.87400
C912        C  0.64367131  0.53307316  0.05953136     0.87600
C913        C  0.95128915  0.99951802  0.00955780    -0.05500
C914        C  0.94746274  0.97103908  0.01376578    -0.05400
C915        C  0.97200020  0.96702728  0.01490362    -0.23600
C916        C  0.00072538  0.99138094  0.01068294     0.18600
C917        C  0.50476402  0.52016389  0.00624099     0.15800
C918        C  0.98001851  0.52412852  0.00659037    -0.18600
C919        C  0.53340230  0.54433985  0.00041426    -0.20500
C920        C  0.55774205  0.53999498  0.99838315    -0.13000
C921        C  0.55395085  0.51152974  0.00308768     0.03600
C922        C  0.52539681  0.98733549  0.00980821    -0.25200
H923        H  0.92539233  0.95185267  0.01625501     0.08700
H924        H  0.96847440  0.94482671  0.01821136     0.12300
H925        H  0.98298454  0.54610164  0.00287030     0.12300
H926        H  0.53692191  0.56651362  0.99676795     0.12000
H927        H  0.57963494  0.55897955  0.99340865     0.12600
H928        H  0.52228659  0.96527510  0.01307320     0.14500
C929        C  0.69868728  0.49377782  0.99280228    -0.05500
C930        C  0.69688190  0.96602321  0.99460386    -0.05400
C931        C  0.72267055  0.96397043  0.99418071    -0.23600
C932        C  0.75075512  0.98969904  0.99304735     0.18600
C933        C  0.75282622  0.51776972  0.99189341     0.15800
C934        C  0.72680490  0.51959803  0.99103853    -0.18600
C935        C  0.78088814  0.54353389  0.99235310    -0.20500
C936        C  0.80665620  0.54153581  0.99437414    -0.13000
C937        C  0.80487083  0.01376317  0.99489566     0.03600
C938        C  0.77678930  0.98787574  0.99378428    -0.25200
H939        H  0.67546581  0.94587089  0.99590837     0.08700
H940        H  0.72065222  0.94227205  0.99528056     0.12300
H941        H  0.72843150  0.54114570  0.99015720     0.12300
H942        H  0.78289893  0.56523826  0.99167114     0.12000
H943        H  0.82805530  0.56173644  0.99506135     0.12600
H944        H  0.77519429  0.96634178  0.99462326     0.14500
C945        C  0.95439825  0.59364990  0.76050325    -0.05500
C946        C  0.92722908  0.56698091  0.75604699    -0.05400
C947        C  0.91074291  0.55117821  0.78966905    -0.23600
C948        C  0.92084810  0.56194293  0.82851126     0.18600
C949        C  0.94753633  0.58932039  0.83333685     0.15800
C950        C  0.96430523  0.60484391  0.79936482    -0.18600
C951        C  0.95726207  0.60045271  0.87212820    -0.20500
C952        C  0.94119599  0.58431748  0.90579518    -0.13000
C953        C  0.91523233  0.55650450  0.90150374     0.03600
C954        C  0.90501256  0.54557816  0.86257292    -0.25200
H955        H  0.91914896  0.55777083  0.72644021     0.08700
H956        H  0.89028476  0.53034976  0.78527686     0.12300
H957        H  0.98509067  0.62546690  0.80315187     0.12300
H958        H  0.97752926  0.62146315  0.87647740     0.12000
H959        H  0.94968567  0.59327039  0.93536724     0.12600
H960        H  0.88495828  0.52428473  0.85878600     0.14500
C961        C  0.54399847  0.90806346  0.76135432    -0.05500
C962        C  0.57347933  0.93113612  0.75548948    -0.05400
C963        C  0.59116535  0.94736872  0.78799715    -0.23600
C964        C  0.57994597  0.94067597  0.82725021     0.18600
C965        C  0.55072432  0.91686460  0.83374823     0.15800
C966        C  0.53285201  0.90087904  0.80080080    -0.18600
C967        C  0.53973563  0.90973752  0.87309227    -0.20500
C968        C  0.55730180  0.92619875  0.90554658    -0.13000
C969        C  0.58605758  0.95044996  0.89939049     0.03600
C970        C  0.59729596  0.95758898  0.86003523    -0.25200
H971        H  0.58270357  0.93732774  0.72548519     0.08700
H972        H  0.61352551  0.96538901  0.78235487     0.12300
H973        H  0.51025193  0.88312679  0.80583797     0.12300
H974        H  0.51745385  0.89158602  0.87877409     0.12000
H975        H  0.54797173  0.92047613  0.93556461     0.12600
H976        H  0.61942507  0.97622790  0.85497025     0.14500
C977        C  0.48879478  0.79469505  0.66708781    -0.05500
C978        C  0.96061280  0.76893136  0.66722704    -0.05400
C979        C  0.95777611  0.74080994  0.66657365    -0.23600
C980        C  0.98309188  0.73786917  0.66664795     0.18600
C981        C  0.51155711  0.76366934  0.66768538     0.15800
C982        C  0.51424330  0.79189217  0.66722748    -0.18600
C983        C  0.53685699  0.76078995  0.66923586    -0.20500
C984        C  0.53406743  0.73272988  0.66937637    -0.13000
C985        C  0.50597392  0.70691561  0.66717528     0.03600
C986        C  0.98047740  0.70964330  0.66576931    -0.25200
H987        H  0.94067966  0.77056353  0.66701392     0.08700
H988        H  0.93577061  0.72136791  0.66606085     0.12300
H989        H  0.53606056  0.81163394  0.66758602     0.12300
H990        H  0.55883631  0.78024901  0.67034527     0.12000
H991        H  0.55406235  0.73122984  0.67037886     0.12600
H992        H  0.95870429  0.68988315  0.66452118     0.14500
C993        C  0.49074387  0.94948159  0.65317752    -0.05500
C994        C  0.96261758  0.94706313  0.65239762    -0.05400
C995        C  0.95989648  0.97226308  0.64960165    -0.23600
C996        C  0.98529829  0.00043606  0.64851588     0.18600
C997        C  0.51376057  0.50312369  0.64919570     0.15800
C998        C  0.51631752  0.97756979  0.65074410    -0.18600
C999        C  0.53913656  0.53135346  0.64955012    -0.20500
C1000       C  0.53633376  0.55660178  0.65047573    -0.13000
C1001       C  0.50816091  0.55412694  0.65010651     0.03600
C1002       C  0.98269020  0.52596107  0.64813838    -0.25200
H1003       H  0.94261688  0.92552875  0.65386649     0.08700
H1004       H  0.93793246  0.96973788  0.64917284     0.12300
H1005       H  0.53806257  0.97956074  0.65164308     0.12300
H1006       H  0.56111044  0.53390672  0.65012603     0.12000
H1007       H  0.55628143  0.57818771  0.65171696     0.12600
H1008       H  0.96090764  0.52390954  0.64823194     0.14500
C1009       C  0.55113837  0.65141711  0.55805520    -0.05500
C1010       C  0.53762860  0.65133733  0.52152723    -0.05400
C1011       C  0.55008233  0.64996653  0.48488002    -0.23600
C1012       C  0.57597725  0.64806935  0.48410712     0.18600
C1013       C  0.59047716  0.64937217  0.52052723     0.15800
C1014       C  0.57829196  0.65168665  0.55726840    -0.18600
C1015       C  0.61588806  0.64653646  0.51966792    -0.20500
C1016       C  0.62603081  0.64113144  0.48330974    -0.13000
C1017       C  0.61133719  0.63916339  0.44710883     0.03600
C1018       C  0.58675103  0.64344038  0.44768196    -0.25200
H1019       H  0.01671360  0.65111143  0.52134788     0.08700
H1020       H  0.53871341  0.64903413  0.45722833     0.12300
H1021       H  0.58869892  0.65133646  0.58525528     0.12300
H1022       H  0.62731147  0.64747827  0.54726358     0.12000
H1023       H  0.64513134  0.63809080  0.48356198     0.12600
H1024       H  0.57505927  0.64170311  0.41999670     0.14500
C1025       C  0.64952124  0.55121270  0.09623744    -0.05500
C1026       C  0.64972256  0.57822317  0.09440899    -0.05400
C1027       C  0.64929588  0.59274825  0.12966134    -0.23600
C1028       C  0.64905882  0.58068892  0.16734095     0.18600
C1029       C  0.65026697  0.55424193  0.16944721     0.15800
C1030       C  0.65032993  0.53961252  0.13393825    -0.18600
C1031       C  0.65053063  0.54240031  0.20705060    -0.20500
C1032       C  0.64911442  0.55633804  0.24227534    -0.13000
C1033       C  0.64698195  0.58212803  0.24057196     0.03600
C1034       C  0.64707960  0.59428622  0.20290311    -0.25200
H1035       H  0.64860100  0.58732120  0.06570275     0.08700
H1036       H  0.64845761  0.61303278  0.12744000     0.12300
H1037       H  0.65008138  0.51873328  0.13563492     0.12300
H1038       H  0.65147111  0.52216675  0.20922464     0.12000
H1039       H  0.64881175  0.54640800  0.27092563     0.12600
H1040       H  0.64549936  0.61420276  0.20127320     0.14500
C1041       C  0.94482129  0.85122124  0.56101020    -0.05500
C1042       C  0.95528992  0.84397938  0.52621933    -0.05400
C1043       C  0.94281206  0.84280524  0.48873442    -0.23600
C1044       C  0.92010153  0.84961873  0.48512253     0.18600
C1045       C  0.90883087  0.85627956  0.51997372     0.15800
C1046       C  0.92092363  0.85652169  0.55789245    -0.18600
C1047       C  0.88668925  0.86393637  0.51594411    -0.20500
C1048       C  0.87667875  0.86607717  0.47774680    -0.13000
C1049       C  0.88827133  0.86014970  0.44285312     0.03600
C1050       C  0.90947853  0.85117068  0.44702058    -0.25200
H1051       H  0.47374176  0.83995513  0.52792747     0.08700
H1052       H  0.95172721  0.83767383  0.46233811     0.12300
H1053       H  0.91310138  0.86270914  0.58448190     0.12300
H1054       H  0.87774720  0.86913736  0.54224732     0.12600
H1055       H  0.86024272  0.87291227  0.47549158     0.12600
H1056       H  0.91877678  0.84666214  0.42047389     0.14500
C1057       C  0.94713627  0.95408326  0.33573776    -0.05500
C1058       C  0.94758165  0.98097668  0.33029841    -0.05400
C1059       C  0.97428510  0.50793874  0.33191390    -0.23600
C1060       C  0.00099812  0.50854834  0.33983260     0.18600
C1061       C  0.50079216  0.98167930  0.34634652     0.15800
C1062       C  0.97389165  0.95454274  0.34366061    -0.18600
C1063       C  0.52749679  0.98251012  0.35543734    -0.20500
C1064       C  0.55419500  0.50962998  0.35721611    -0.13000
C1065       C  0.55473832  0.53637381  0.34941849     0.03600
C1066       C  0.52790618  0.53560090  0.34111067    -0.25200
H1067       H  0.92723022  0.98109782  0.32418374     0.08700
H1068       H  0.97402708  0.52833364  0.32703906     0.12300
H1069       H  0.97365896  0.93388088  0.34845599     0.12300
H1070       H  0.52777526  0.96218700  0.36088168     0.12000
H1071       H  0.57454689  0.50960873  0.36368179     0.12600
H1072       H  0.52794729  0.55607979  0.33550005     0.14500
C1073       C  0.70993425  0.69115597  0.33637993    -0.05500
C1074       C  0.73713921  0.69160032  0.33608903    -0.05400
C1075       C  0.76401512  0.71845859  0.33379671    -0.23600
C1076       C  0.76421466  0.74544411  0.33262562     0.18600
C1077       C  0.73700007  0.74531001  0.33368526     0.15800
C1078       C  0.71004412  0.71817950  0.33496318    -0.18600
C1079       C  0.73724527  0.77233239  0.33384925    -0.20500
C1080       C  0.76417042  0.79922024  0.33302756    -0.13000
C1081       C  0.79136700  0.79963657  0.33126910     0.03600
C1082       C  0.79116387  0.77254601  0.33087290    -0.25200
H1083       H  0.73760411  0.67108479  0.33710080     0.08700
H1084       H  0.78465537  0.71812654  0.33322437     0.12300
H1085       H  0.68918734  0.71810868  0.33568855     0.12300
H1086       H  0.71662072  0.77268494  0.33490868     0.12000
H1087       H  0.76370465  0.81974810  0.33341271     0.12600
H1088       H  0.81198489  0.77255209  0.33006538     0.14500
C1089       C  0.85238965  0.95997382  0.10367089    -0.05500
C1090       C  0.84646102  0.97140636  0.13858676    -0.05400
C1091       C  0.84393936  0.95819409  0.17594819    -0.23600
C1092       C  0.84816706  0.93377795  0.17930667     0.18600
C1093       C  0.85330120  0.92148812  0.14427585     0.15800
C1094       C  0.85476796  0.93430653  0.10649921    -0.18600
C1095       C  0.85841285  0.89761009  0.14798278    -0.20500
C1096       C  0.85973753  0.88691553  0.18605394    -0.13000
C1097       C  0.85537035  0.89947049  0.22114941     0.03600
C1098       C  0.84876366  0.92241698  0.21730767    -0.25200
H1099       H  0.84454798  0.49112141  0.13708299     0.08700
H1100       H  0.83992319  0.96786433  0.20246901     0.12300
H1101       H  0.85979743  0.92559181  0.07979076     0.12300
H1102       H  0.86236213  0.88783836  0.12151703     0.12000
H1103       H  0.86464992  0.86910365  0.18805988     0.12600
H1104       H  0.84548633  0.93246222  0.24402501     0.14500
loop_ 
_geom_bond_atom_site_label_1 
_geom_bond_atom_site_label_2 
_geom_bond_distance 
_geom_bond_site_symmetry_2 
_ccdc_geom_bond_type 
O1           Ni9   1.923       .  S
O1           C11   1.282       .  A
O2           Ni9   1.922       .  S
O2           C12   1.282       .  A
O3           Ni9   1.929       .  S
O3           C13   1.284       .  A
O4           Ni9   1.919       .  S
O4           C14   1.282       .  A
O5          Ni10   1.925       .  S
O5           C14   1.283       .  A
O6          Ni10   1.920       .  S
O6           C13   1.282       .  A
O7          Ni10   1.921       .  S
O7           C12   1.282       .  A
O8          Ni10   1.919       .  S
O8           C11   1.282       .  A
Ni9         Ni10   2.386       .  S
C11         C229   1.478       .  S
C12         C253   1.484       .  S
C13         C269   1.488       .  S
C14         C221   1.487       .  S
O15         Ni23   1.924       .  S
O15          C25   1.283       .  A
O16         Ni23   1.924       .  S
O16          C26   1.283       .  A
O17         Ni23   1.921       .  S
O17          C27   1.282       .  A
O18         Ni23   1.914       .  S
O18          C28   1.281       .  A
O19         Ni24   1.920       .  S
O19          C28   1.282       .  A
O20         Ni24   1.913       .  S
O20          C27   1.281       .  A
O21         Ni24   1.920       .  S
O21          C26   1.281       .  A
O22         Ni24   1.918       .  S
O22          C25   1.282       .  A
Ni23        Ni24   2.387       .  S
C25         C237   1.483       .  S
C26         C245   1.482       .  S
C27         C189   1.479       .  S
C28         C205   1.478       .  S
O29         Ni37   1.901       .  S
O29         C591   1.278       .  A
O30         Ni37   1.913       .  S
O30         C592   1.280       .  A
O31         Ni37   1.938       .  S
O31         C593   1.286       .  A
O32         Ni37   1.931       .  S
O32          C42   1.284       .  A
O33         Ni38   1.910   1_655  S
O33         C594   1.280       .  A
O34         Ni38   1.906       .  S
O34          C41   1.279       .  A
O35         Ni38   1.931       .  S
O35          C40   1.284   1_455  A
O36         Ni38   1.930       .  S
O36          C39   1.284   1_455  A
Ni37       Ni590   2.387       .  S
Ni38       Ni589   2.387   1_455  S
C39         O581   1.278       .  A
C39         C165   1.473       .  S
C40         O582   1.280       .  A
C40         C149   1.481       .  S
C41         O583   1.286   1_455  A
C41         C133   1.486       .  S
C42         O585   1.280       .  A
C42         C213   1.479       .  S
O43         Ni51   1.932       .  S
O43         C605   1.285       .  A
O44         Ni51   1.934       .  S
O44         C606   1.285       .  A
O45         Ni51   1.908       .  S
O45         C607   1.280       .  A
O46         Ni51   1.908       .  S
O46          C56   1.279       .  A
O47         Ni52   1.934       .  S
O47         C608   1.286   1_455  A
O48         Ni52   1.926       .  S
O48          C55   1.283       .  A
O49         Ni52   1.907       .  S
O49          C54   1.279       .  A
O50         Ni52   1.902       .  S
O50          C53   1.278       .  A
Ni51       Ni604   2.387       .  S
Ni52       Ni603   2.387   1_455  S
C53         O595   1.285   1_455  A
C53         C173   1.474       .  S
C54         O596   1.285   1_455  A
C54         C157   1.482       .  S
C55         O597   1.280       .  A
C55         C181   1.478       .  S
C56         O599   1.286       .  A
C56         C117   1.483       .  S
O57         Ni65   1.922       .  S
O57         C343   1.282       .  A
O58         Ni65   1.923       .  S
O58         C344   1.283   1_554  A
O59         Ni65   1.918       .  S
O59         C345   1.282   1_545  A
O60         Ni65   1.912   1_556  S
O60          C70   1.280       .  A
O61         Ni66   1.934       .  S
O61         C346   1.285       .  A
O62         Ni66   1.927   1_554  S
O62          C69   1.283       .  A
O63         Ni66   1.917       .  S
O63          C68   1.281       .  A
O64         Ni66   1.908       .  S
O64          C67   1.279   1_556  A
Ni65       Ni342   2.388   1_544  S
Ni66       Ni341   2.388   1_556  S
C67         O333   1.282       .  A
C67          C85   1.469       .  S
C68         O334   1.283   1_556  A
C68         C109   1.480       .  S
C69         O335   1.282       .  A
C69         C261   1.481       .  S
C70         O337   1.285       .  A
C70         C125   1.486       .  S
O71         Ni79   1.908       .  S
O71          C81   1.279   1_556  A
O72         Ni79   1.917       .  S
O72          C82   1.281   1_545  A
O73         Ni79   1.932   1_565  S
O73         C359   1.285       .  A
O74         Ni79   1.922   1_554  S
O74          C84   1.283       .  A
O75         Ni80   1.910       .  S
O75         C360   1.280       .  A
O76         Ni80   1.906   1_556  S
O76          C83   1.279       .  A
O77         Ni80   1.925       .  S
O77         C358   1.283   1_554  A
O78         Ni80   1.921       .  S
O78         C357   1.283       .  A
Ni79       Ni356   2.388   1_546  S
Ni80       Ni355   2.388   1_554  S
C81         O354   1.283   1_545  A
C81          C93   1.473       .  S
C82         O353   1.283   1_556  A
C82         C101   1.480       .  S
C83         O349   1.285       .  A
C83         C141   1.480       .  S
C84         O351   1.280       .  A
C84         C197   1.476       .  S
C85          C86   1.404       .  A
C85         C366   1.402       .  A
C86          C87   1.395       .  A
C86          H95   1.083       .  S
C87          C88   1.401       .  A
C87          H96   1.084       .  S
C88         C646   1.402       .  A
C88         C917   1.416       .  A
C89          C91   1.401       .  A
C89         C916   1.416   1_545  A
C89         C642   1.404   1_455  A
C90         C361   1.402   1_545  A
C90         C641   1.404       .  A
C90          H97   1.085       .  S
C91          C92   1.396   1_554  A
C91          H98   1.084   1_554  S
C92          C93   1.406   1_556  A
C92          H99   1.083       .  S
C93         C370   1.403   1_545  A
C94         C640   1.402       .  A
C94         C369   1.403       .  A
C94         H100   1.084       .  S
C101        C106   1.407   1_565  A
C101        C378   1.404       .  A
C102        C103   1.399       .  A
C102        C377   1.404       .  A
C102        H111   1.083       .  S
C103        C104   1.403       .  A
C103        H112   1.084       .  S
C104        C110   1.406       .  A
C104        C381   1.414       .  A
C105        C107   1.403       .  A
C105        C106   1.406       .  A
C105        C380   1.414   1_545  A
C106        H113   1.084       .  S
C107        C108   1.399       .  A
C107        H114   1.084       .  S
C108        C385   1.404       .  A
C108        H115   1.083       .  S
C109        C110   1.407       .  A
C109        C384   1.404       .  A
C110        H116   1.084       .  S
C117        C118   1.408       .  A
C117        C122   1.405       .  A
C118        C119   1.398       .  A
C118        H127   1.083       .  S
C119        C120   1.401       .  A
C119        H128   1.084       .  S
C120        C126   1.409       .  A
C120        C121   1.415       .  A
C121        C123   1.400       .  A
C121        C122   1.408       .  A
C122        H129   1.084       .  S
C123        C124   1.398       .  A
C123        H130   1.084       .  S
C124        C125   1.408       .  A
C124        H131   1.083       .  S
C125        C126   1.407       .  A
C126        H132   1.084       .  S
C133        C134   1.409       .  A
C133        C138   1.406       .  A
C134        C135   1.397       .  A
C134        H143   1.083       .  S
C135        C136   1.399       .  A
C135        H144   1.084       .  S
C136        C142   1.408       .  A
C136        C137   1.416       .  A
C137        C139   1.400       .  A
C137        C138   1.408       .  A
C138        H145   1.084       .  S
C139        C140   1.397       .  A
C139        H146   1.084       .  S
C140        C141   1.407       .  A
C140        H147   1.083       .  S
C141        C142   1.404       .  A
C142        H148   1.084       .  S
C149        C154   1.404   1_655  A
C149        C702   1.407       .  A
C150        C151   1.398       .  A
C150        C701   1.407       .  A
C150        H159   1.083       .  S
C151        C152   1.401       .  A
C151        H160   1.084       .  S
C152        C158   1.409       .  A
C152        C705   1.416       .  A
C153        C155   1.400       .  A
C153        C154   1.407       .  A
C153        C704   1.416   1_455  A
C154        H161   1.084       .  S
C155        C156   1.396       .  A
C155        H162   1.084       .  S
C156        C157   1.407       .  A
C156        H163   1.083       .  S
C157        C710   1.405   1_455  A
C158        C709   1.405       .  A
C158        H164   1.084       .  S
C165        C170   1.402   1_655  A
C165        C718   1.406       .  A
C166        C167   1.395       .  A
C166        C717   1.406       .  A
C166        H175   1.083       .  S
C167        C168   1.399       .  A
C167        H176   1.084       .  S
C168        C450   1.405       .  A
C168        C997   1.417       .  A
C169        C171   1.400       .  A
C169        C996   1.417   1_455  A
C169        C446   1.406   1_545  A
C170        C445   1.406       .  A
C170        H177   1.084       .  S
C171        C172   1.396       .  A
C171        H178   1.084       .  S
C172        C173   1.407       .  A
C172        H179   1.083       .  S
C173        C726   1.402   1_455  A
C174        C444   1.405       .  A
C174        C725   1.402       .  A
C174        H180   1.084       .  S
C181        C182   1.406       .  A
C181        C186   1.407       .  A
C182        C183   1.395       .  A
C182        H743   1.083       .  S
C183        C184   1.401       .  A
C183        H192   1.084       .  S
C184        C190   1.402       .  A
C184        C185   1.414       .  A
C185        C187   1.403       .  A
C185        C186   1.406       .  A
C186        H193   1.084       .  S
C187        C188   1.399       .  A
C187        H194   1.084       .  S
C188        C189   1.405       .  A
C188        H195   1.083       .  S
C189        C190   1.405       .  A
C190        H196   1.085       .  S
H191        C734   1.083       .  S
C197        C198   1.405       .  A
C197        C202   1.405       .  A
C198        C199   1.398       .  A
C198        H207   1.083       .  S
C199        C200   1.402       .  A
C199        H208   1.084       .  S
C200        C206   1.405       .  A
C200        C201   1.414       .  A
C201        C203   1.401       .  A
C201        C202   1.403       .  A
C202        H209   1.084       .  S
C203        C204   1.396       .  A
C203        H210   1.084       .  S
C204        C205   1.406       .  A
C204        H211   1.083       .  S
C205        C206   1.406       .  A
C206        H212   1.084       .  S
C213        C214   1.404       .  A
C213        C218   1.408       .  A
C214        C215   1.396       .  A
C214        H775   1.083       .  S
C215        C216   1.401       .  A
C215        H224   1.084       .  S
C216        C222   1.404       .  A
C216        C217   1.414       .  A
C217        C219   1.404       .  A
C217        C218   1.410       .  A
C218        H225   1.085       .  S
C219        C220   1.402       .  A
C219        H226   1.084       .  S
C220        C221   1.408       .  A
C220        H227   1.083       .  S
C221        C222   1.407       .  A
C222        H228   1.084       .  S
H223        C766   1.083       .  S
C229        C230   1.404       .  A
C229        C234   1.407       .  A
C230        C507   1.396       .  A
C230        H239   1.083       .  S
C231        C232   1.402       .  A
C231        C506   1.396   1_545  A
C231        H240   1.084       .  S
C232        C790   1.404       .  A
C232       C1061   1.414   1_545  A
C233        C235   1.404       .  A
C233       C1060   1.414       .  A
C233        C786   1.408   1_455  A
C234        C785   1.408       .  A
C234        H241   1.084       .  S
C235        C512   1.401       .  A
C235        H242   1.084       .  S
C236        C237   1.406       .  A
C236        C511   1.401   1_545  A
C236        H243   1.083       .  S
C237        C238   1.406       .  A
C238        C784   1.404       .  A
C238        H244   1.084       .  S
C245        C246   1.405       .  A
C245        C250   1.408       .  A
C246        C247   1.399       .  A
C246        H255   1.083       .  S
C247        C248   1.403       .  A
C247        H256   1.083       .  S
C248        C254   1.407       .  A
C248        C249   1.414       .  A
C249        C251   1.403       .  A
C249        C250   1.407       .  A
C250        H257   1.084       .  S
C251        C252   1.399       .  A
C251        H258   1.083       .  S
C252        C253   1.406       .  A
C252        H259   1.083       .  S
C253        C254   1.408       .  A
C254        H260   1.084       .  S
C261        C262   1.404       .  A
C261        C266   1.409       .  A
C262        C263   1.397       .  A
C262        H547   1.083       .  S
C263        C264   1.402       .  A
C263        H272   1.084       .  S
C264        C270   1.406       .  A
C264        C265   1.414       .  A
C265        C267   1.404       .  A
C265        C266   1.410       .  A
C266        H273   1.084       .  S
C267        C268   1.402       .  A
C267        H274   1.084       .  S
C268        C269   1.407       .  A
C268        H275   1.083       .  S
C269        C270   1.408       .  A
C270        H276   1.084       .  S
H271        C538   1.083       .  S
O277       Ni285   1.923       .  S
O277        C287   1.282       .  A
O278       Ni285   1.922       .  S
O278        C288   1.282       .  A
O279       Ni285   1.929       .  S
O279        C289   1.284       .  A
O280       Ni285   1.919       .  S
O280        C290   1.282       .  A
O281       Ni286   1.925       .  S
O281        C290   1.283       .  A
O282       Ni286   1.920       .  S
O282        C289   1.282       .  A
O283       Ni286   1.921       .  S
O283        C288   1.282       .  A
O284       Ni286   1.919       .  S
O284        C287   1.282       .  A
Ni285      Ni286   2.386       .  S
C287        C505   1.478       .  S
C288        C529   1.484       .  S
C289        C545   1.488       .  S
C290        C497   1.487       .  S
O291       Ni299   1.924       .  S
O291        C301   1.283       .  A
O292       Ni299   1.924       .  S
O292        C302   1.283       .  A
O293       Ni299   1.921       .  S
O293        C303   1.282       .  A
O294       Ni299   1.914       .  S
O294        C304   1.281       .  A
O295       Ni300   1.920       .  S
O295        C304   1.282       .  A
O296       Ni300   1.913       .  S
O296        C303   1.281       .  A
O297       Ni300   1.920       .  S
O297        C302   1.281       .  A
O298       Ni300   1.918       .  S
O298        C301   1.282       .  A
Ni299      Ni300   2.387       .  S
C301        C513   1.483       .  S
C302        C521   1.482       .  S
C303        C465   1.479       .  S
C304        C481   1.478       .  S
O305       Ni313   1.901       .  S
O305        C867   1.278       .  A
O306       Ni313   1.913       .  S
O306        C868   1.280       .  A
O307       Ni313   1.938       .  S
O307        C869   1.286       .  A
O308       Ni313   1.931       .  S
O308        C318   1.284       .  A
O309       Ni314   1.910   1_655  S
O309        C870   1.280       .  A
O310       Ni314   1.906       .  S
O310        C317   1.279       .  A
O311       Ni314   1.931       .  S
O311        C316   1.284   1_455  A
O312       Ni314   1.930       .  S
O312        C315   1.284   1_455  A
Ni313      Ni866   2.387       .  S
Ni314      Ni865   2.387   1_455  S
C315        O857   1.278       .  A
C315        C441   1.473       .  S
C316        O858   1.280       .  A
C316        C425   1.481       .  S
C317        O859   1.286   1_455  A
C317        C409   1.486       .  S
C318        O861   1.280       .  A
C318        C489   1.479       .  S
O319       Ni327   1.932       .  S
O319        C881   1.285       .  A
O320       Ni327   1.934       .  S
O320        C882   1.285       .  A
O321       Ni327   1.908       .  S
O321        C883   1.280       .  A
O322       Ni327   1.908       .  S
O322        C332   1.279       .  A
O323       Ni328   1.934       .  S
O323        C884   1.286   1_455  A
O324       Ni328   1.926       .  S
O324        C331   1.283       .  A
O325       Ni328   1.907       .  S
O325        C330   1.279       .  A
O326       Ni328   1.902       .  S
O326        C329   1.278       .  A
Ni327      Ni880   2.387       .  S
Ni328      Ni879   2.387   1_455  S
C329        O871   1.285   1_455  A
C329        C449   1.474       .  S
C330        O872   1.285   1_455  A
C330        C433   1.482       .  S
C331        O873   1.280       .  A
C331        C457   1.478       .  S
C332        O875   1.286       .  A
C332        C393   1.483       .  S
O333       Ni341   1.922       .  S
O334       Ni341   1.923       .  S
O335       Ni341   1.918       .  S
O336       Ni341   1.912   1_556  S
O336        C346   1.280       .  A
O337       Ni342   1.934   1_545  S
O338       Ni342   1.927   1_554  S
O338        C345   1.283       .  A
O339       Ni342   1.917       .  S
O339        C344   1.281   1_565  A
O340       Ni342   1.908       .  S
O340        C343   1.279   1_566  A
C343        C361   1.469   1_545  S
C344        C385   1.480       .  S
C345        C537   1.481       .  S
C346        C401   1.486       .  S
O347       Ni355   1.908       .  S
O347        C357   1.279   1_556  A
O348       Ni355   1.917       .  S
O348        C358   1.281       .  A
O349       Ni355   1.932       .  S
O350       Ni355   1.922   1_554  S
O350        C360   1.283       .  A
O351       Ni356   1.910   1_545  S
O352       Ni356   1.906   1_556  S
O352        C359   1.279       .  A
O353       Ni356   1.925       .  S
O354       Ni356   1.921       .  S
C357        C369   1.473       .  S
C358        C377   1.480       .  S
C359        C417   1.480       .  S
C360        C473   1.476       .  S
C361        C362   1.404       .  A
C362        C363   1.395       .  A
C362        H371   1.083       .  S
C363        C364   1.401       .  A
C363        H372   1.084       .  S
C364        C922   1.402       .  A
C364        C641   1.416   1_565  A
C365        C640   1.416       .  A
C365        C367   1.401       .  A
C365        C918   1.404   1_455  A
C366        C917   1.404       .  A
C366        H373   1.085       .  S
C367        C368   1.396   1_554  A
C367        H374   1.084   1_554  S
C368        C369   1.406   1_556  A
C368        H375   1.083       .  S
C370        C916   1.402       .  A
C370        H376   1.084       .  S
C377        C382   1.407       .  A
C378        C379   1.399       .  A
C378        H387   1.083       .  S
C379        C380   1.403       .  A
C379        H388   1.084       .  S
C380        C386   1.406       .  A
C381        C383   1.403       .  A
C381        C382   1.406       .  A
C382        H389   1.084       .  S
C383        C384   1.399       .  A
C383        H390   1.084       .  S
C384        H391   1.083       .  S
C385        C386   1.407   1_545  A
C386        H392   1.084       .  S
C393        C394   1.408       .  A
C393        C398   1.405       .  A
C394        C395   1.398       .  A
C394        H403   1.083       .  S
C395        C396   1.401       .  A
C395        H404   1.084       .  S
C396        C402   1.409       .  A
C396        C397   1.415       .  A
C397        C399   1.400       .  A
C397        C398   1.408       .  A
C398        H405   1.084       .  S
C399        C400   1.398       .  A
C399        H406   1.084       .  S
C400        C401   1.408       .  A
C400        H407   1.083       .  S
C401        C402   1.407       .  A
C402        H408   1.084       .  S
C409        C410   1.409       .  A
C409        C414   1.406       .  A
C410        C411   1.397       .  A
C410        H419   1.083       .  S
C411        C412   1.399       .  A
C411        H420   1.084       .  S
C412        C418   1.408       .  A
C412        C413   1.416       .  A
C413        C415   1.400       .  A
C413        C414   1.408       .  A
C414        H421   1.084       .  S
C415        C416   1.397       .  A
C415        H422   1.084       .  S
C416        C417   1.407       .  A
C416        H423   1.083       .  S
C417        C418   1.404       .  A
C418        H424   1.084       .  S
C425        C978   1.407       .  A
C425        C430   1.404   1_655  A
C426        C977   1.407       .  A
C426        C427   1.398       .  A
C426        H435   1.083       .  S
C427        C428   1.401       .  A
C427        H436   1.084       .  S
C428        C434   1.409       .  A
C428        C981   1.416       .  A
C429        C980   1.416   1_455  A
C429        C431   1.400       .  A
C429        C430   1.407       .  A
C430        H437   1.084       .  S
C431        C432   1.396       .  A
C431        H438   1.084       .  S
C432        C433   1.407       .  A
C432        H439   1.083       .  S
C433        C986   1.405   1_455  A
C434        C985   1.405       .  A
C434        H440   1.084       .  S
C441        C994   1.406       .  A
C441        C446   1.402   1_655  A
C442        C993   1.406       .  A
C442        C443   1.395       .  A
C442        H451   1.083       .  S
C443        C444   1.399   1_565  A
C443        H452   1.084       .  S
C444        C721   1.417       .  A
C445        C720   1.417   1_455  A
C445        C447   1.400       .  A
C446        H453   1.084       .  S
C447        C448   1.396       .  A
C447        H454   1.084       .  S
C448        C449   1.407       .  A
C448        H455   1.083       .  S
C449       C1002   1.402   1_455  A
C450       C1001   1.402       .  A
C450        H456   1.084       .  S
C457        C458   1.406       .  A
C457        C462   1.407       .  A
C458        C459   1.395       .  A
C458       H1019   1.083       .  S
C459        C460   1.401       .  A
C459        H468   1.084       .  S
C460        C466   1.402       .  A
C460        C461   1.414       .  A
C461        C463   1.403       .  A
C461        C462   1.406       .  A
C462        H469   1.084       .  S
C463        C464   1.399       .  A
C463        H470   1.084       .  S
C464        C465   1.405       .  A
C464        H471   1.083       .  S
C465        C466   1.405       .  A
C466        H472   1.085       .  S
H467       C1010   1.083       .  S
C473        C474   1.405       .  A
C473        C478   1.405       .  A
C474        C475   1.398       .  A
C474        H483   1.083       .  S
C475        C476   1.402       .  A
C475        H484   1.084       .  S
C476        C482   1.405       .  A
C476        C477   1.414       .  A
C477        C479   1.401       .  A
C477        C478   1.403       .  A
C478        H485   1.084       .  S
C479        C480   1.396       .  A
C479        H486   1.084       .  S
C480        C481   1.406       .  A
C480        H487   1.083       .  S
C481        C482   1.406       .  A
C482        H488   1.084       .  S
C489        C490   1.404       .  A
C489        C494   1.408       .  A
C490        C491   1.396       .  A
C490       H1051   1.083       .  S
C491        C492   1.401       .  A
C491        H500   1.084       .  S
C492        C498   1.404       .  A
C492        C493   1.414       .  A
C493        C495   1.404       .  A
C493        C494   1.410       .  A
C494        H501   1.085       .  S
C495        C496   1.402       .  A
C495        H502   1.084       .  S
C496        C497   1.408       .  A
C496        H503   1.083       .  S
C497        C498   1.407       .  A
C498        H504   1.084       .  S
H499       C1042   1.083       .  S
C505        C506   1.404       .  A
C505        C510   1.407       .  A
C506        H515   1.083       .  S
C507        C508   1.402       .  A
C507        H516   1.084       .  S
C508       C1066   1.404       .  A
C508        C785   1.414       .  A
C509        C784   1.414   1_565  A
C509        C511   1.404       .  A
C509       C1062   1.408   1_455  A
C510       C1061   1.408       .  A
C510        H517   1.084       .  S
C511        H518   1.084       .  S
C512        C513   1.406       .  A
C512        H519   1.083       .  S
C513        C514   1.406       .  A
C514       C1060   1.404       .  A
C514        H520   1.084       .  S
C521        C522   1.405       .  A
C521        C526   1.408       .  A
C522        C523   1.399       .  A
C522        H531   1.083       .  S
C523        C524   1.403       .  A
C523        H532   1.083       .  S
C524        C530   1.407       .  A
C524        C525   1.414       .  A
C525        C527   1.403       .  A
C525        C526   1.407       .  A
C526        H533   1.084       .  S
C527        C528   1.399       .  A
C527        H534   1.083       .  S
C528        C529   1.406       .  A
C528        H535   1.083       .  S
C529        C530   1.408       .  A
C530        H536   1.084       .  S
C537        C538   1.404       .  A
C537        C542   1.409       .  A
C538        C539   1.397       .  A
C539        C540   1.402       .  A
C539        H548   1.084       .  S
C540        C546   1.406       .  A
C540        C541   1.414       .  A
C541        C543   1.404       .  A
C541        C542   1.410       .  A
C542        H549   1.084       .  S
C543        C544   1.402       .  A
C543        H550   1.084       .  S
C544        C545   1.407       .  A
C544        H551   1.083       .  S
C545        C546   1.408       .  A
C546        H552   1.084       .  S
O553       Ni561   1.923       .  S
O553        C563   1.282       .  A
O554       Ni561   1.922       .  S
O554        C564   1.282       .  A
O555       Ni561   1.929       .  S
O555        C565   1.284       .  A
O556       Ni561   1.919       .  S
O556        C566   1.282       .  A
O557       Ni562   1.925       .  S
O557        C566   1.283       .  A
O558       Ni562   1.920       .  S
O558        C565   1.282       .  A
O559       Ni562   1.921       .  S
O559        C564   1.282       .  A
O560       Ni562   1.919       .  S
O560        C563   1.282       .  A
Ni561      Ni562   2.386       .  S
C563        C781   1.478       .  S
C564        C805   1.484       .  S
C565        C821   1.488       .  S
C566        C773   1.487       .  S
O567       Ni575   1.924       .  S
O567        C577   1.283       .  A
O568       Ni575   1.924       .  S
O568        C578   1.283       .  A
O569       Ni575   1.921       .  S
O569        C579   1.282       .  A
O570       Ni575   1.914       .  S
O570        C580   1.281       .  A
O571       Ni576   1.920       .  S
O571        C580   1.282       .  A
O572       Ni576   1.913       .  S
O572        C579   1.281       .  A
O573       Ni576   1.920       .  S
O573        C578   1.281       .  A
O574       Ni576   1.918       .  S
O574        C577   1.282       .  A
Ni575      Ni576   2.387       .  S
C577        C789   1.483       .  S
C578        C797   1.482       .  S
C579        C741   1.479       .  S
C580        C757   1.478       .  S
O581       Ni589   1.901       .  S
O582       Ni589   1.913       .  S
O583       Ni589   1.938       .  S
O584       Ni589   1.931       .  S
O584        C594   1.284       .  A
O585       Ni590   1.910       .  S
O586       Ni590   1.906       .  S
O586        C593   1.279       .  A
O587       Ni590   1.931       .  S
O587        C592   1.284       .  A
O588       Ni590   1.930       .  S
O588        C591   1.284       .  A
C591        C717   1.473       .  S
C592        C701   1.481       .  S
C593        C685   1.486       .  S
C594        C765   1.479       .  S
O595       Ni603   1.932       .  S
O596       Ni603   1.934       .  S
O597       Ni603   1.908   1_455  S
O598       Ni603   1.908       .  S
O598        C608   1.279       .  A
O599       Ni604   1.934       .  S
O600       Ni604   1.926       .  S
O600        C607   1.283       .  A
O601       Ni604   1.907       .  S
O601        C606   1.279       .  A
O602       Ni604   1.902       .  S
O602        C605   1.278       .  A
C605        C725   1.474       .  S
C606        C709   1.482       .  S
C607        C733   1.478       .  S
C608        C669   1.483       .  S
O609       Ni617   1.922       .  S
O609        C895   1.282       .  A
O610       Ni617   1.923       .  S
O610        C896   1.283   1_554  A
O611       Ni617   1.918       .  S
O611        C897   1.282   1_545  A
O612       Ni617   1.912   1_556  S
O612        C622   1.280       .  A
O613       Ni618   1.934       .  S
O613        C898   1.285       .  A
O614       Ni618   1.927   1_554  S
O614        C621   1.283       .  A
O615       Ni618   1.917       .  S
O615        C620   1.281       .  A
O616       Ni618   1.908       .  S
O616        C619   1.279   1_556  A
Ni617      Ni894   2.388   1_544  S
Ni618      Ni893   2.388   1_556  S
C619        O885   1.282       .  A
C619        C637   1.469       .  S
C620        O886   1.283   1_556  A
C620        C661   1.480       .  S
C621        O887   1.282       .  A
C621        C813   1.481       .  S
C622        O889   1.285       .  A
C622        C677   1.486       .  S
O623       Ni631   1.908       .  S
O623        C633   1.279   1_556  A
O624       Ni631   1.917       .  S
O624        C634   1.281   1_545  A
O625       Ni631   1.932   1_565  S
O625        C911   1.285       .  A
O626       Ni631   1.922   1_554  S
O626        C636   1.283       .  A
O627       Ni632   1.910       .  S
O627        C912   1.280       .  A
O628       Ni632   1.906   1_556  S
O628        C635   1.279       .  A
O629       Ni632   1.925       .  S
O629        C910   1.283   1_554  A
O630       Ni632   1.921       .  S
O630        C909   1.283       .  A
Ni631      Ni908   2.388   1_546  S
Ni632      Ni907   2.388   1_554  S
C633        O906   1.283   1_545  A
C633        C645   1.473       .  S
C634        O905   1.283   1_556  A
C634        C653   1.480       .  S
C635        O901   1.285       .  A
C635        C693   1.480       .  S
C636        O903   1.280       .  A
C636        C749   1.476       .  S
C637        C638   1.404       .  A
C637        C918   1.402       .  A
C638        C639   1.395       .  A
C638        H647   1.083       .  S
C639        C640   1.401   1_655  A
C639        H648   1.084       .  S
C641        C643   1.401       .  A
C642        C913   1.402   1_545  A
C642        H649   1.085       .  S
C643        C644   1.396   1_554  A
C643        H650   1.084   1_554  S
C644        C645   1.406   1_556  A
C644        H651   1.083       .  S
C645        C922   1.403   1_545  A
C646        C921   1.403       .  A
C646        H652   1.084       .  S
C653        C930   1.404       .  A
C653        C658   1.407   1_565  A
C654        C929   1.404       .  A
C654        C655   1.399       .  A
C654        H663   1.083       .  S
C655        C656   1.403       .  A
C655        H664   1.084       .  S
C656        C662   1.406       .  A
C656        C933   1.414       .  A
C657        C932   1.414   1_545  A
C657        C659   1.403       .  A
C657        C658   1.406       .  A
C658        H665   1.084       .  S
C659        C660   1.399       .  A
C659        H666   1.084       .  S
C660        C937   1.404       .  A
C660        H667   1.083       .  S
C661        C936   1.404       .  A
C661        C662   1.407       .  A
C662        H668   1.084       .  S
C669        C670   1.408       .  A
C669        C674   1.405       .  A
C670        C671   1.398       .  A
C670        H679   1.083       .  S
C671        C672   1.401       .  A
C671        H680   1.084       .  S
C672        C678   1.409       .  A
C672        C673   1.415       .  A
C673        C675   1.400       .  A
C673        C674   1.408       .  A
C674        H681   1.084       .  S
C675        C676   1.398       .  A
C675        H682   1.084       .  S
C676        C677   1.408       .  A
C676        H683   1.083       .  S
C677        C678   1.407       .  A
C678        H684   1.084       .  S
C685        C686   1.409       .  A
C685        C690   1.406       .  A
C686        C687   1.397       .  A
C686        H695   1.083       .  S
C687        C688   1.399       .  A
C687        H696   1.084       .  S
C688        C694   1.408       .  A
C688        C689   1.416       .  A
C689        C691   1.400       .  A
C689        C690   1.408       .  A
C690        H697   1.084       .  S
C691        C692   1.397       .  A
C691        H698   1.084       .  S
C692        C693   1.407       .  A
C692        H699   1.083       .  S
C693        C694   1.404       .  A
C694        H700   1.084       .  S
C701        C706   1.404       .  A
C702        C703   1.398       .  A
C702        H711   1.083       .  S
C703        C704   1.401       .  A
C703        H712   1.084       .  S
C704        C710   1.409       .  A
C705        C707   1.400       .  A
C705        C706   1.407       .  A
C706        H713   1.084       .  S
C707        C708   1.396       .  A
C707        H714   1.084       .  S
C708        C709   1.407       .  A
C708        H715   1.083       .  S
C710        H716   1.084       .  S
C717        C722   1.402       .  A
C718        C719   1.395       .  A
C718        H727   1.083       .  S
C719        C720   1.399       .  A
C719        H728   1.084       .  S
C720       C1002   1.405       .  A
C721        C723   1.400       .  A
C721        C998   1.406   1_545  A
C722        C997   1.406       .  A
C722        H729   1.084       .  S
C723        C724   1.396       .  A
C723        H730   1.084       .  S
C724        C725   1.407       .  A
C724        H731   1.083       .  S
C726        C996   1.405       .  A
C726        H732   1.084       .  S
C733        C734   1.406       .  A
C733        C738   1.407       .  A
C734        C735   1.395       .  A
C735        C736   1.401       .  A
C735        H744   1.084       .  S
C736        C742   1.402       .  A
C736        C737   1.414       .  A
C737        C739   1.403       .  A
C737        C738   1.406       .  A
C738        H745   1.084       .  S
C739        C740   1.399       .  A
C739        H746   1.084       .  S
C740        C741   1.405       .  A
C740        H747   1.083       .  S
C741        C742   1.405       .  A
C742        H748   1.085       .  S
C749        C750   1.405       .  A
C749        C754   1.405       .  A
C750        C751   1.398       .  A
C750        H759   1.083       .  S
C751        C752   1.402       .  A
C751        H760   1.084       .  S
C752        C758   1.405       .  A
C752        C753   1.414       .  A
C753        C755   1.401       .  A
C753        C754   1.403       .  A
C754        H761   1.084       .  S
C755        C756   1.396       .  A
C755        H762   1.084       .  S
C756        C757   1.406       .  A
C756        H763   1.083       .  S
C757        C758   1.406       .  A
C758        H764   1.084       .  S
C765        C766   1.404       .  A
C765        C770   1.408       .  A
C766        C767   1.396       .  A
C767        C768   1.401       .  A
C767        H776   1.084       .  S
C768        C774   1.404       .  A
C768        C769   1.414       .  A
C769        C771   1.404       .  A
C769        C770   1.410       .  A
C770        H777   1.085       .  S
C771        C772   1.402       .  A
C771        H778   1.084       .  S
C772        C773   1.408       .  A
C772        H779   1.083       .  S
C773        C774   1.407       .  A
C774        H780   1.084       .  S
C781        C782   1.404       .  A
C781        C786   1.407       .  A
C782       C1059   1.396       .  A
C782        H791   1.083       .  S
C783       C1058   1.396   1_545  A
C783        C784   1.402   1_655  A
C783        H792   1.084       .  S
C785        C787   1.404       .  A
C786        H793   1.084       .  S
C787       C1064   1.401       .  A
C787        H794   1.084       .  S
C788       C1063   1.401   1_545  A
C788        C789   1.406       .  A
C788        H795   1.083       .  S
C789        C790   1.406       .  A
C790        H796   1.084       .  S
C797        C798   1.405       .  A
C797        C802   1.408       .  A
C798        C799   1.399       .  A
C798        H807   1.083       .  S
C799        C800   1.403       .  A
C799        H808   1.083       .  S
C800        C806   1.407       .  A
C800        C801   1.414       .  A
C801        C803   1.403       .  A
C801        C802   1.407       .  A
C802        H809   1.084       .  S
C803        C804   1.399       .  A
C803        H810   1.083       .  S
C804        C805   1.406       .  A
C804        H811   1.083       .  S
C805        C806   1.408       .  A
C806        H812   1.084       .  S
C813        C814   1.404       .  A
C813        C818   1.409       .  A
C814        C815   1.397       .  A
C814       H1099   1.083       .  S
C815        C816   1.402       .  A
C815        H824   1.084       .  S
C816        C822   1.406       .  A
C816        C817   1.414       .  A
C817        C819   1.404       .  A
C817        C818   1.410       .  A
C818        H825   1.084       .  S
C819        C820   1.402       .  A
C819        H826   1.084       .  S
C820        C821   1.407       .  A
C820        H827   1.083       .  S
C821        C822   1.408       .  A
C822        H828   1.084       .  S
H823       C1090   1.083       .  S
O829       Ni837   1.923       .  S
O829        C839   1.282       .  A
O830       Ni837   1.922       .  S
O830        C840   1.282       .  A
O831       Ni837   1.929       .  S
O831        C841   1.284       .  A
O832       Ni837   1.919       .  S
O832        C842   1.282       .  A
O833       Ni838   1.925       .  S
O833        C842   1.283       .  A
O834       Ni838   1.920       .  S
O834        C841   1.282       .  A
O835       Ni838   1.921       .  S
O835        C840   1.282       .  A
O836       Ni838   1.919       .  S
O836        C839   1.282       .  A
Ni837      Ni838   2.386       .  S
C839       C1057   1.478       .  S
C840       C1081   1.484       .  S
C841       C1097   1.488       .  S
C842       C1049   1.487       .  S
O843       Ni851   1.924       .  S
O843        C853   1.283       .  A
O844       Ni851   1.924       .  S
O844        C854   1.283       .  A
O845       Ni851   1.921       .  S
O845        C855   1.282       .  A
O846       Ni851   1.914       .  S
O846        C856   1.281       .  A
O847       Ni852   1.920       .  S
O847        C856   1.282       .  A
O848       Ni852   1.913       .  S
O848        C855   1.281       .  A
O849       Ni852   1.920       .  S
O849        C854   1.281       .  A
O850       Ni852   1.918       .  S
O850        C853   1.282       .  A
Ni851      Ni852   2.387       .  S
C853       C1065   1.483       .  S
C854       C1073   1.482       .  S
C855       C1017   1.479       .  S
C856       C1033   1.478       .  S
O857       Ni865   1.901       .  S
O858       Ni865   1.913       .  S
O859       Ni865   1.938       .  S
O860       Ni865   1.931       .  S
O860        C870   1.284       .  A
O861       Ni866   1.910       .  S
O862       Ni866   1.906       .  S
O862        C869   1.279       .  A
O863       Ni866   1.931       .  S
O863        C868   1.284       .  A
O864       Ni866   1.930       .  S
O864        C867   1.284       .  A
C867        C993   1.473       .  S
C868        C977   1.481       .  S
C869        C961   1.486       .  S
C870       C1041   1.479       .  S
O871       Ni879   1.932       .  S
O872       Ni879   1.934       .  S
O873       Ni879   1.908   1_455  S
O874       Ni879   1.908       .  S
O874        C884   1.279       .  A
O875       Ni880   1.934       .  S
O876       Ni880   1.926       .  S
O876        C883   1.283       .  A
O877       Ni880   1.907       .  S
O877        C882   1.279       .  A
O878       Ni880   1.902       .  S
O878        C881   1.278       .  A
C881       C1001   1.474       .  S
C882        C985   1.482       .  S
C883       C1009   1.478       .  S
C884        C945   1.483       .  S
O885       Ni893   1.922       .  S
O886       Ni893   1.923       .  S
O887       Ni893   1.918       .  S
O888       Ni893   1.912   1_556  S
O888        C898   1.280       .  A
O889       Ni894   1.934   1_545  S
O890       Ni894   1.927   1_554  S
O890        C897   1.283       .  A
O891       Ni894   1.917       .  S
O891        C896   1.281   1_565  A
O892       Ni894   1.908       .  S
O892        C895   1.279   1_566  A
C895        C913   1.469   1_545  S
C896        C937   1.480       .  S
C897       C1089   1.481       .  S
C898        C953   1.486       .  S
O899       Ni907   1.908       .  S
O899        C909   1.279   1_556  A
O900       Ni907   1.917       .  S
O900        C910   1.281       .  A
O901       Ni907   1.932       .  S
O902       Ni907   1.922   1_554  S
O902        C912   1.283       .  A
O903       Ni908   1.910   1_545  S
O904       Ni908   1.906   1_556  S
O904        C911   1.279       .  A
O905       Ni908   1.925       .  S
O906       Ni908   1.921       .  S
C909        C921   1.473       .  S
C910        C929   1.480       .  S
C911        C969   1.480       .  S
C912       C1025   1.476       .  S
C913        C914   1.404       .  A
C914        C915   1.395       .  A
C914        H923   1.083       .  S
C915        C916   1.401   1_655  A
C915        H924   1.084       .  S
C917        C919   1.401       .  A
C918        H925   1.085       .  S
C919        C920   1.396   1_554  A
C919        H926   1.084   1_554  S
C920        C921   1.406   1_556  A
C920        H927   1.083       .  S
C922        H928   1.084       .  S
C929        C934   1.407       .  A
C930        C931   1.399       .  A
C930        H939   1.083       .  S
C931        C932   1.403       .  A
C931        H940   1.084       .  S
C932        C938   1.406       .  A
C933        C935   1.403       .  A
C933        C934   1.406       .  A
C934        H941   1.084       .  S
C935        C936   1.399       .  A
C935        H942   1.084       .  S
C936        H943   1.083       .  S
C937        C938   1.407   1_545  A
C938        H944   1.084       .  S
C945        C946   1.408       .  A
C945        C950   1.405       .  A
C946        C947   1.398       .  A
C946        H955   1.083       .  S
C947        C948   1.401       .  A
C947        H956   1.084       .  S
C948        C954   1.409       .  A
C948        C949   1.415       .  A
C949        C951   1.400       .  A
C949        C950   1.408       .  A
C950        H957   1.084       .  S
C951        C952   1.398       .  A
C951        H958   1.084       .  S
C952        C953   1.408       .  A
C952        H959   1.083       .  S
C953        C954   1.407       .  A
C954        H960   1.084       .  S
C961        C962   1.409       .  A
C961        C966   1.406       .  A
C962        C963   1.397       .  A
C962        H971   1.083       .  S
C963        C964   1.399       .  A
C963        H972   1.084       .  S
C964        C970   1.408       .  A
C964        C965   1.416       .  A
C965        C967   1.400       .  A
C965        C966   1.408       .  A
C966        H973   1.084       .  S
C967        C968   1.397       .  A
C967        H974   1.084       .  S
C968        C969   1.407       .  A
C968        H975   1.083       .  S
C969        C970   1.404       .  A
C970        H976   1.084       .  S
C977        C982   1.404       .  A
C978        C979   1.398       .  A
C978        H987   1.083       .  S
C979        C980   1.401       .  A
C979        H988   1.084       .  S
C980        C986   1.409       .  A
C981        C983   1.400       .  A
C981        C982   1.407       .  A
C982        H989   1.084       .  S
C983        C984   1.396       .  A
C983        H990   1.084       .  S
C984        C985   1.407       .  A
C984        H991   1.083       .  S
C986        H992   1.084       .  S
C993        C998   1.402       .  A
C994        C995   1.395       .  A
C994       H1003   1.083       .  S
C995        C996   1.399   1_565  A
C995       H1004   1.084       .  S
C997        C999   1.400       .  A
C998       H1005   1.084       .  S
C999       C1000   1.396       .  A
C999       H1006   1.084       .  S
C1000      C1001   1.407       .  A
C1000      H1007   1.083       .  S
C1002      H1008   1.084       .  S
C1009      C1010   1.406       .  A
C1009      C1014   1.407       .  A
C1010      C1011   1.395       .  A
C1011      C1012   1.401       .  A
C1011      H1020   1.084       .  S
C1012      C1018   1.402       .  A
C1012      C1013   1.414       .  A
C1013      C1015   1.403       .  A
C1013      C1014   1.406       .  A
C1014      H1021   1.084       .  S
C1015      C1016   1.399       .  A
C1015      H1022   1.084       .  S
C1016      C1017   1.405       .  A
C1016      H1023   1.083       .  S
C1017      C1018   1.405       .  A
C1018      H1024   1.085       .  S
C1025      C1026   1.405       .  A
C1025      C1030   1.405       .  A
C1026      C1027   1.398       .  A
C1026      H1035   1.083       .  S
C1027      C1028   1.402       .  A
C1027      H1036   1.084       .  S
C1028      C1034   1.405       .  A
C1028      C1029   1.414       .  A
C1029      C1031   1.401       .  A
C1029      C1030   1.403       .  A
C1030      H1037   1.084       .  S
C1031      C1032   1.396       .  A
C1031      H1038   1.084       .  S
C1032      C1033   1.406       .  A
C1032      H1039   1.083       .  S
C1033      C1034   1.406       .  A
C1034      H1040   1.084       .  S
C1041      C1042   1.404       .  A
C1041      C1046   1.408       .  A
C1042      C1043   1.396       .  A
C1043      C1044   1.401       .  A
C1043      H1052   1.084       .  S
C1044      C1050   1.404       .  A
C1044      C1045   1.414       .  A
C1045      C1047   1.404       .  A
C1045      C1046   1.410       .  A
C1046      H1053   1.085       .  S
C1047      C1048   1.402       .  A
C1047      H1054   1.084       .  S
C1048      C1049   1.408       .  A
C1048      H1055   1.083       .  S
C1049      C1050   1.407       .  A
C1050      H1056   1.084       .  S
C1057      C1058   1.404       .  A
C1057      C1062   1.407       .  A
C1058      H1067   1.083       .  S
C1059      C1060   1.402   1_655  A
C1059      H1068   1.084       .  S
C1061      C1063   1.404       .  A
C1062      H1069   1.084       .  S
C1063      H1070   1.084       .  S
C1064      C1065   1.406       .  A
C1064      H1071   1.083       .  S
C1065      C1066   1.406       .  A
C1066      H1072   1.084       .  S
C1073      C1074   1.405       .  A
C1073      C1078   1.408       .  A
C1074      C1075   1.399       .  A
C1074      H1083   1.083       .  S
C1075      C1076   1.403       .  A
C1075      H1084   1.083       .  S
C1076      C1082   1.407       .  A
C1076      C1077   1.414       .  A
C1077      C1079   1.403       .  A
C1077      C1078   1.407       .  A
C1078      H1085   1.084       .  S
C1079      C1080   1.399       .  A
C1079      H1086   1.083       .  S
C1080      C1081   1.406       .  A
C1080      H1087   1.083       .  S
C1081      C1082   1.408       .  A
C1082      H1088   1.084       .  S
C1089      C1090   1.404       .  A
C1089      C1094   1.409       .  A
C1090      C1091   1.397       .  A
C1091      C1092   1.402       .  A
C1091      H1100   1.084       .  S
C1092      C1098   1.406       .  A
C1092      C1093   1.414       .  A
C1093      C1095   1.404       .  A
C1093      C1094   1.410       .  A
C1094      H1101   1.084       .  S
C1095      C1096   1.402       .  A
C1095      H1102   1.084       .  S
C1096      C1097   1.407       .  A
C1096      H1103   1.083       .  S
C1097      C1098   1.408       .  A
C1098      H1104   1.084       .  S
