geometry optimzed in LAMMPS
_audit_creation_date              2020-12-01 
_audit_creation_method            'lammps2cif' 
_symmetry_space_group_name_H-M    'P1' 
_symmetry_Int_Tables_number       1 
_symmetry_cell_setting            triclinic 
loop_ 
_symmetry_equiv_pos_as_xyz 
  x,y,z 
_cell_length_a                    27.95301666 
_cell_length_b                    27.91347255487356 
_cell_length_c                    42.13278468858486 
_cell_angle_alpha                 89.52836198044976 
_cell_angle_beta                  90.02787551327786 
_cell_angle_gamma                 91.2905014442011 
loop_ 
_atom_site_label 
_atom_site_type_symbol 
_atom_site_fract_x 
_atom_site_fract_y 
_atom_site_fract_z 
_atom_site_charge 
O1          O  0.44446798  0.09161530  0.12662403    -0.74900
O2          O  0.39470094  0.21908186  0.13344837    -0.74900
O3          O  0.43773774  0.15649600  0.17370973    -0.75000
O4          O  0.40328649  0.15485380  0.08635253    -0.75100
O5          O  0.33051048  0.12541284  0.09768144    -0.75000
O6          O  0.36754230  0.12289809  0.18664515    -0.75000
O7          O  0.32422256  0.18616722  0.14726812    -0.74900
O8          O  0.37177742  0.06083537  0.13718066    -0.75000
Ni9        Ni  0.42259186  0.15653286  0.12957277     1.25400
Ni10       Ni  0.34596127  0.12265273  0.14267382     1.25400
C11         C  0.41590472  0.05541379  0.13074324     0.87300
C12         C  0.35083112  0.22312867  0.14179900     0.85600
C13         C  0.40893361  0.13982382  0.19485754     0.87200
C14         C  0.36127837  0.14188020  0.07745795     0.87400
O15         O  0.44646226  0.82395216  0.12441204    -0.74900
O16         O  0.49338957  0.69495379  0.12780481    -0.74900
O17         O  0.45227896  0.75479937  0.17008170    -0.75000
O18         O  0.48613671  0.76432440  0.08218460    -0.75100
O19         O  0.55915292  0.79174527  0.09504486    -0.75000
O20         O  0.52367368  0.78470561  0.18355095    -0.75000
O21         O  0.56480757  0.72497751  0.14206802    -0.74900
O22         O  0.51927482  0.85181610  0.13703311    -0.75000
Ni23       Ni  0.46696712  0.75837399  0.12563768     1.25400
Ni24       Ni  0.54427693  0.78920901  0.13986474     1.25400
C25         C  0.47559275  0.85913802  0.12994573     0.87300
C26         C  0.53706482  0.68919234  0.13611838     0.87200
C27         C  0.48198804  0.76857657  0.19151649     0.87200
C28         C  0.52772168  0.78015625  0.07408979     0.87400
O29         O  0.44526011  0.10013987  0.89408695    -0.74900
O30         O  0.39731881  0.22872740  0.88718828    -0.74900
O31         O  0.40246544  0.16215884  0.93387460    -0.75000
O32         O  0.44203083  0.16725772  0.84763789    -0.75100
O33         O  0.37168548  0.13614779  0.83265086    -0.75000
O34         O  0.33057745  0.13275813  0.92048715    -0.75000
O35         O  0.32693856  0.19751871  0.87187100    -0.74900
O36         O  0.37360449  0.07115592  0.88037053    -0.75000
Ni37       Ni  0.42425060  0.16563115  0.89124336     1.25400
Ni38       Ni  0.34811743  0.13340042  0.87584166     1.25400
C39         C  0.41725463  0.06430952  0.88786145     0.87300
C40         C  0.35378465  0.23384155  0.87827110     0.87200
C41         C  0.36046015  0.14732322  0.94170319     0.87200
C42         C  0.41426800  0.15144598  0.82587389     0.87400
O43         O  0.44968036  0.83069483  0.88882783    -0.74900
O44         O  0.49677687  0.70199148  0.88584284    -0.74900
O45         O  0.48995145  0.77038564  0.93081798    -0.75000
O46         O  0.45439700  0.76215649  0.84382113    -0.75100
O47         O  0.52505702  0.79234711  0.82890245    -0.75000
O48         O  0.56259275  0.79860200  0.91753153    -0.75000
O49         O  0.56777624  0.73225062  0.87061970    -0.74900
O50         O  0.52179453  0.85933400  0.87532271    -0.75000
Ni51       Ni  0.47021718  0.76521510  0.88777227     1.25400
Ni52       Ni  0.54694992  0.79657322  0.87256850     1.25400
C53         C  0.47819599  0.86632327  0.88280249     0.87300
C54         C  0.54045840  0.69638660  0.87760617     0.87200
C55         C  0.53137419  0.78643783  0.93869200     0.87200
C56         C  0.48290235  0.77620252  0.82182024     0.87400
O57         O  0.45059231  0.82961507  0.62293498    -0.74900
O58         O  0.40360819  0.69855293  0.62692874    -0.74900
O59         O  0.40859008  0.76833955  0.58120288    -0.75000
O60         O  0.44753124  0.76080335  0.66809354    -0.75100
O61         O  0.37640416  0.78693473  0.68324305    -0.75000
O62         O  0.33630707  0.79272765  0.59548357    -0.75000
O63         O  0.33286740  0.72545657  0.64246296    -0.74900
O64         O  0.37857734  0.85401598  0.63702664    -0.75000
Ni65       Ni  0.43007168  0.76323100  0.62417582     1.25400
Ni66       Ni  0.35346376  0.79052618  0.64002328     1.25400
C67         C  0.42222321  0.86345706  0.62991449     0.87300
C68         C  0.36029159  0.69084129  0.63609357     0.87200
C69         C  0.36673309  0.78246888  0.57390591     0.87200
C70         C  0.41916372  0.77420411  0.68995115     0.87400
O71         O  0.44989231  0.09702232  0.62814950    -0.74900
O72         O  0.49358814  0.22888588  0.63083768    -0.74900
O73         O  0.48949122  0.15918708  0.58597087    -0.75000
O74         O  0.45188215  0.16632670  0.67249548    -0.75100
O75         O  0.52273795  0.14022938  0.68799379    -0.75000
O76         O  0.56270210  0.13669523  0.59992354    -0.75000
O77         O  0.56473330  0.20336139  0.64697182    -0.74900
O78         O  0.52290592  0.07364061  0.64173342    -0.75000
Ni79       Ni  0.46872751  0.16384017  0.62879960     1.25400
Ni80       Ni  0.54596282  0.13784654  0.64467646     1.25400
C81         C  0.47950476  0.06373900  0.63447991     0.87300
C82         C  0.53663064  0.23739297  0.64012738     0.87200
C83         C  0.53134402  0.14567958  0.57847393     0.87200
C84         C  0.47997702  0.15316625  0.69461766     0.87400
O85         O  0.44953078  0.82041799  0.39038372    -0.74900
O86         O  0.39916034  0.69076696  0.38660972    -0.74900
O87         O  0.44438698  0.75192874  0.34502225    -0.75000
O88         O  0.40558664  0.75989871  0.43195469    -0.75100
O89         O  0.33423239  0.78673956  0.41729699    -0.75000
O90         O  0.37399225  0.77997086  0.32969715    -0.75000
O91         O  0.32912307  0.71953441  0.37082905    -0.74900
O92         O  0.37830706  0.84707242  0.37566579    -0.75000
Ni93       Ni  0.42716383  0.75461319  0.38904086     1.25400
Ni94       Ni  0.35139485  0.78417186  0.37284120     1.25400
C95         C  0.42176922  0.85514201  0.38386226     0.87300
C96         C  0.35566446  0.68419528  0.37762204     0.87200
C97         C  0.41584160  0.76498485  0.32294510     0.87200
C98         C  0.36429944  0.77563794  0.43902745     0.87400
O99         O  0.44805585  0.08887062  0.39281938    -0.74900
O100        O  0.48708786  0.22162328  0.39011523    -0.74900
O101        O  0.44858914  0.15810307  0.34766174    -0.75000
O102        O  0.48492906  0.15158254  0.43509119    -0.75100
O103        O  0.55901015  0.13139341  0.42189877    -0.75000
O104        O  0.52131134  0.13565406  0.33340969    -0.75000
O105        O  0.55994071  0.19943649  0.37528268    -0.74900
O106        O  0.52152790  0.06771232  0.37972154    -0.75000
Ni107      Ni  0.46463541  0.15592354  0.39188453     1.25400
Ni108      Ni  0.54313796  0.13296197  0.37704263     1.25400
C109        C  0.47824005  0.05628399  0.38683676     0.87300
C110        C  0.53040989  0.23200429  0.38234375     0.87200
C111        C  0.47834087  0.14687927  0.32599520     0.87200
C112        C  0.52720629  0.13954279  0.44305769     0.87400
O113        O  0.08076800  0.45880610  0.12456241    -0.74900
O114        O  0.20780776  0.40759970  0.13012196    -0.74900
O115        O  0.14103069  0.41647397  0.08370606    -0.75000
O116        O  0.14744080  0.45149423  0.17081918    -0.75100
O117        O  0.11407541  0.38168195  0.18505533    -0.75000
O118        O  0.11120423  0.34414655  0.09675883    -0.75000
O119        O  0.17493339  0.33752321  0.14524906    -0.74900
O120        O  0.04991881  0.38675786  0.13694786    -0.75000
Ni121      Ni  0.14549137  0.43608415  0.12681008     1.25400
Ni122      Ni  0.11154834  0.35993924  0.14149372     1.25400
C123        C  0.04442966  0.43087883  0.12983375     0.87300
C124        C  0.21182633  0.36377228  0.13898067     0.87200
C125        C  0.12464950  0.37517136  0.07572578     0.87200
C126        C  0.13096856  0.42338672  0.19244945     0.87400
O127        O  0.81182544  0.46214996  0.12488152    -0.74900
O128        O  0.68268094  0.50777356  0.12801706    -0.74900
O129        O  0.75155308  0.50195551  0.08285189    -0.75000
O130        O  0.74304986  0.46621068  0.17008817    -0.75100
O131        O  0.77227260  0.53790968  0.18400240    -0.75000
O132        O  0.77858518  0.57513661  0.09555318    -0.75000
O133        O  0.71201867  0.57936636  0.14245874    -0.74900
O134        O  0.83937538  0.53483349  0.13747624    -0.75000
Ni135      Ni  0.74618212  0.48198204  0.12599342     1.25400
Ni136      Ni  0.77646575  0.55941883  0.14037294     1.25400
C137        C  0.84706184  0.49126876  0.13020676     0.87300
C138        C  0.67652541  0.55141996  0.13608640     0.87200
C139        C  0.76721175  0.54363900  0.07467532     0.87200
C140        C  0.75641997  0.49578428  0.19153103     0.87400
O141        O  0.08080993  0.46400489  0.89185902    -0.74900
O142        O  0.20939776  0.41673717  0.88610826    -0.74900
O143        O  0.14799956  0.46092859  0.84562603    -0.75000
O144        O  0.14200427  0.42176542  0.93262266    -0.75100
O145        O  0.11434292  0.34923862  0.91895880    -0.75000
O146        O  0.11676192  0.39056794  0.83101774    -0.75000
O147        O  0.17868956  0.34636506  0.87040185    -0.74900
O148        O  0.05249846  0.39176884  0.87887843    -0.75000
Ni149      Ni  0.14626029  0.44336262  0.88958620     1.25400
Ni150      Ni  0.11471140  0.36690747  0.87431535     1.25400
C151        C  0.04528639  0.43528958  0.88634493     0.87300
C152        C  0.21474739  0.37353549  0.87673377     0.87200
C153        C  0.13220909  0.43307490  0.82389402     0.87200
C154        C  0.12614428  0.37991525  0.94029610     0.87400
O155        O  0.81223664  0.46499526  0.88932619    -0.74900
O156        O  0.68388834  0.51239098  0.88557463    -0.74900
O157        O  0.74426653  0.47091776  0.84387850    -0.75000
O158        O  0.75207839  0.50440139  0.93099612    -0.75100
O159        O  0.78039321  0.57749681  0.91847284    -0.75000
O160        O  0.77504787  0.54193328  0.82976888    -0.75000
O161        O  0.71442764  0.58378668  0.87098759    -0.74900
O162        O  0.84102269  0.53784541  0.87689020    -0.75000
Ni163      Ni  0.74694774  0.48568338  0.88788997     1.25400
Ni164      Ni  0.77856406  0.56295202  0.87350947     1.25400
C165        C  0.84773172  0.49395226  0.88400733     0.87300
C166        C  0.67849846  0.55626701  0.87732790     0.87200
C167        C  0.75935796  0.49978543  0.82229110     0.87200
C168        C  0.76884072  0.54537071  0.93928421     0.87400
O169        O  0.81153644  0.47034097  0.62037104    -0.74900
O170        O  0.68144216  0.42422339  0.63144307    -0.74900
O171        O  0.74855781  0.46759366  0.66901855    -0.75000
O172        O  0.74407928  0.42871582  0.58266274    -0.75100
O173        O  0.77039130  0.35626159  0.59555891    -0.75000
O174        O  0.77659790  0.39639799  0.68309183    -0.75000
O175        O  0.70995203  0.35324245  0.64587319    -0.74900
O176        O  0.83769261  0.39763764  0.63298827    -0.75000
Ni177      Ni  0.74548236  0.45029759  0.62534781     1.25400
Ni178      Ni  0.77460515  0.37332894  0.63989085     1.25400
C179        C  0.84581480  0.44117045  0.62484749     0.87300
C180        C  0.67477073  0.38071444  0.64077284     0.87200
C181        C  0.76365842  0.43887293  0.69035638     0.87200
C182        C  0.75554852  0.38636785  0.57478054     0.87400
O183        O  0.07752970  0.46573763  0.62394696    -0.74900
O184        O  0.21056256  0.50637654  0.62774208    -0.74900
O185        O  0.14627234  0.46644443  0.66942854    -0.75000
O186        O  0.14140814  0.50376456  0.58215183    -0.75100
O187        O  0.12085489  0.57774497  0.59541943    -0.75000
O188        O  0.12226708  0.53848541  0.68376980    -0.75000
O189        O  0.18673116  0.57842832  0.64289264    -0.74900
O190        O  0.05656446  0.53957931  0.63670396    -0.75000
Ni191      Ni  0.14487816  0.48297634  0.62531027     1.25400
Ni192      Ni  0.12100687  0.56117119  0.64019053     1.25400
C193        C  0.04515367  0.49644096  0.62981858     0.87300
C194        C  0.22006449  0.54954505  0.63639342     0.87200
C195        C  0.13380608  0.49541575  0.69109609     0.87200
C196        C  0.12952550  0.54620936  0.57428499     0.87400
O197        O  0.80627560  0.46241332  0.38985857    -0.74900
O198        O  0.67458069  0.42045841  0.38610091    -0.74900
O199        O  0.74216421  0.42455713  0.43144301    -0.75000
O200        O  0.73855485  0.45942415  0.34393493    -0.75100
O201        O  0.76274654  0.38687468  0.33099725    -0.75000
O202        O  0.76558260  0.35095051  0.41949123    -0.75000
O203        O  0.69904061  0.34769533  0.37279323    -0.74900
O204        O  0.82924107  0.38887078  0.37763736    -0.75000
Ni205      Ni  0.73960670  0.44436458  0.38823263     1.25400
Ni206      Ni  0.76490413  0.36597803  0.37469800     1.25400
C207        C  0.83934954  0.43240185  0.38452886     0.87300
C208        C  0.66561001  0.37657193  0.37921890     0.87200
C209        C  0.75396633  0.38235808  0.43997692     0.87200
C210        C  0.75053597  0.42926031  0.32280472     0.87400
O211        O  0.07371682  0.45710208  0.39281092    -0.74900
O212        O  0.20520754  0.50096124  0.38550759    -0.74900
O213        O  0.13818171  0.49866733  0.43248743    -0.75000
O214        O  0.14001292  0.45747568  0.34615146    -0.75100
O215        O  0.11466338  0.52898109  0.33042641    -0.75000
O216        O  0.11479473  0.57132533  0.41746647    -0.75000
O217        O  0.17915261  0.57200546  0.36914046    -0.74900
O218        O  0.05029914  0.52952839  0.37809935    -0.75000
Ni219      Ni  0.14032594  0.47599561  0.38982642     1.25400
Ni220      Ni  0.11398928  0.55300625  0.37325003     1.25400
C221        C  0.04022885  0.48638641  0.38647986     0.87300
C222        C  0.21336407  0.54401888  0.37564932     0.87200
C223        C  0.12529435  0.54105069  0.43933134     0.87200
C224        C  0.12669536  0.48595054  0.32407004     0.87400
C225        C  0.92355889  0.41412792  0.39726407    -0.09600
C226        C  0.89010662  0.44737722  0.38646308     0.06500
C227        C  0.90621342  0.49317543  0.37661525    -0.03400
C228        C  0.95489744  0.50480475  0.37763840    -0.07900
C229        C  0.98889945  0.47149772  0.38795777     0.05700
C230        C  0.97251008  0.42559319  0.39817395    -0.02900
Br231      Br  0.01376574  0.37641324  0.41360223    -0.02600
H232        H  0.91151638  0.37876590  0.40503592     0.09600
H233        H  0.96609933  0.54014894  0.36939406     0.07600
Br234      Br  0.86451667  0.54016827  0.35879300    -0.03000
C235        C  0.08661298  0.53020142  0.52450019    -0.09600
C236        C  0.12281068  0.55628007  0.54014558     0.06500
C237        C  0.15561304  0.58422874  0.52206943    -0.03400
C238        C  0.15440355  0.58203547  0.48868284    -0.07900
C239        C  0.12011439  0.55291493  0.47322372     0.05700
C240        C  0.08473999  0.52880005  0.49142178    -0.02900
Br241      Br  0.03420697  0.49162642  0.47210203    -0.02600
H242        H  0.06081412  0.50898413  0.53815666     0.09600
H243        H  0.18174121  0.60094987  0.47492867     0.07600
Br244      Br  0.20435476  0.62283407  0.54198523    -0.03000
C245        C  0.79037843  0.35438425  0.52477750    -0.09600
C246        C  0.75131919  0.37360416  0.54096471     0.06500
C247        C  0.71091288  0.38763889  0.52346640    -0.03400
C248        C  0.71143317  0.38587417  0.49051587    -0.07900
C249        C  0.75193591  0.37103593  0.47413461     0.05700
C250        C  0.79114897  0.35343514  0.49139680    -0.02900
Br251      Br  0.84851816  0.33393706  0.47066847    -0.02600
H252        H  0.82174773  0.34367631  0.53790782     0.09600
H253        H  0.68083670  0.39889189  0.47746207     0.07600
Br254      Br  0.65469031  0.41239342  0.54293139    -0.03000
C255        C  0.91053225  0.49559071  0.64238948    -0.09600
C256        C  0.89579217  0.45796821  0.62278312     0.06500
C257        C  0.93012843  0.43285610  0.60546042    -0.03400
C258        C  0.97866221  0.44562587  0.60810247    -0.07900
C259        C  0.99375094  0.48287325  0.62824174     0.05700
C260        C  0.95893941  0.50771861  0.64573493    -0.02900
Br261      Br  0.97436129  0.55541094  0.67703711    -0.02600
H262        H  0.88445717  0.51387248  0.65657220     0.09600
H263        H  0.00456229  0.42654011  0.59427124     0.07600
Br264      Br  0.91233993  0.38169538  0.57735686    -0.03000
C265        C  0.77379730  0.51623181  0.76446585    -0.09600
C266        C  0.75958549  0.48360305  0.78848813     0.06500
C267        C  0.74758101  0.43576288  0.77949750    -0.03400
C268        C  0.75104314  0.42196612  0.74772764    -0.07900
C269        C  0.76452387  0.45474240  0.72390650     0.05700
C270        C  0.77599973  0.50245265  0.73255902    -0.02900
Br271      Br  0.79742192  0.55000817  0.70223561    -0.02600
H272        H  0.78344648  0.55287554  0.77043843     0.09600
H273        H  0.74185471  0.38532408  0.74146552     0.07600
Br274      Br  0.72527277  0.38630352  0.80830420    -0.03000
C275        C  0.12975594  0.41600133  0.76582548    -0.09600
C276        C  0.13207615  0.45005732  0.79014192     0.06500
C277        C  0.13386146  0.49928905  0.78142088    -0.03400
C278        C  0.13423941  0.51293979  0.74927696    -0.07900
C279        C  0.13280181  0.47880736  0.72495005     0.05700
C280        C  0.13002482  0.42962176  0.73372350    -0.02900
Br281      Br  0.12423518  0.37832726  0.70370020    -0.02600
H282        H  0.12787714  0.37820121  0.77175715     0.09600
H283        H  0.13582911  0.55073633  0.74331902     0.07600
Br284      Br  0.13366686  0.55053068  0.81163834    -0.03000
C285        C  0.95866456  0.41923798  0.87695725    -0.09600
C286        C  0.99482437  0.45124846  0.88774342     0.06500
C287        C  0.98126110  0.49683030  0.89859628    -0.03400
C288        C  0.93304806  0.50937929  0.89764829    -0.07900
C289        C  0.89746272  0.47750907  0.88628086     0.05700
C290        C  0.91068086  0.43189581  0.87604074    -0.02900
Br291      Br  0.86583249  0.38666914  0.85793009    -0.02600
H292        H  0.96763869  0.38415334  0.86829373     0.09600
H293        H  0.92325965  0.54452671  0.90585002     0.07600
Br294      Br  0.02550922  0.54402173  0.91517482    -0.03000
C295        C  0.74257533  0.49338589  0.28153590    -0.09600
C296        C  0.75098637  0.44483674  0.28878387     0.06500
C297        C  0.76014623  0.41346002  0.26335085    -0.03400
C298        C  0.76170777  0.43115593  0.23216727    -0.07900
C299        C  0.75427648  0.47973534  0.22517987     0.05700
C300        C  0.74393895  0.51086587  0.25028453    -0.02900
Br301      Br  0.72819513  0.57677359  0.24342828    -0.02600
H302        H  0.73474964  0.51831565  0.30030337     0.09600
H303        H  0.76921832  0.40655834  0.21312469     0.07600
Br304      Br  0.77021384  0.34595127  0.26852843    -0.03000
C305        C  0.80059056  0.51833645  0.02399234    -0.09600
C306        C  0.77480519  0.55259143  0.04047503     0.06500
C307        C  0.75279569  0.58969874  0.02333233    -0.03400
C308        C  0.75378938  0.58962254  0.98988078    -0.07900
C309        C  0.77674725  0.55291345  0.97353317     0.05700
C310        C  0.80194723  0.51834012  0.99099020    -0.02900
Br311      Br  0.83759720  0.46885188  0.97097770    -0.02600
H312        H  0.81838217  0.49010145  0.03693286     0.09600
H313        H  0.73418541  0.61633197  0.97674911     0.07600
Br314      Br  0.71727823  0.63789865  0.04441786    -0.03000
C315        C  0.14292749  0.50089447  0.26695453    -0.09600
C316        C  0.12643675  0.46936290  0.29068900     0.06500
C317        C  0.11120597  0.42268874  0.28201989    -0.03400
C318        C  0.11322364  0.40851630  0.25014941    -0.07900
C319        C  0.13068903  0.43983211  0.22621789     0.05700
C320        C  0.14600675  0.48673284  0.23526117    -0.02900
Br321      Br  0.17237967  0.53443641  0.20664596    -0.02600
H322        H  0.15452635  0.53687356  0.27322071     0.09600
H323        H  0.10071337  0.37272112  0.24412482     0.07600
Br324      Br  0.08434174  0.37775071  0.31223390    -0.03000
C325        C  0.08842011  0.39728455  0.02496779    -0.09600
C326        C  0.11835942  0.36627681  0.04148727     0.06500
C327        C  0.14621162  0.33392884  0.02427881    -0.03400
C328        C  0.14642408  0.33588407  0.99079496    -0.07900
C329        C  0.11872027  0.36959634  0.97445555     0.05700
C330        C  0.08812767  0.39887958  0.99192314    -0.02900
Br331      Br  0.04611912  0.44318584  0.97183493    -0.02600
H332        H  0.06648072  0.42196871  0.03793753     0.09600
H333        H  0.17011122  0.31309727  0.97769894     0.07600
Br334      Br  0.18705292  0.28970476  0.04552476    -0.03000
C335        C  0.95889022  0.41766027  0.11618749    -0.09600
C336        C  0.99500480  0.44861155  0.12784081     0.06500
C337        C  0.98228660  0.49379247  0.13930418    -0.03400
C338        C  0.93419430  0.50668580  0.13946793    -0.07900
C339        C  0.89760464  0.47541383  0.12837840     0.05700
C340        C  0.91077726  0.43052902  0.11610750    -0.02900
Br341      Br  0.86610668  0.38481504  0.09829845    -0.02600
H342        H  0.96819536  0.38289871  0.10706956     0.09600
H343        H  0.92545852  0.54128318  0.14905429     0.07600
Br344      Br  0.02812656  0.53791728  0.15748502    -0.03000
C345        C  0.59852172  0.34058194  0.40912612    -0.09600
C346        C  0.61675123  0.35669521  0.37983961     0.06500
C347        C  0.59608957  0.33957708  0.35160900    -0.03400
C348        C  0.56226808  0.30199234  0.35283278    -0.07900
C349        C  0.54847188  0.28169558  0.38205558     0.05700
C350        C  0.56444569  0.30311555  0.41040262    -0.02900
Br351      Br  0.54704864  0.27714121  0.45119605    -0.02600
H352        H  0.61473110  0.35318790  0.43099417     0.09600
H353        H  0.55018926  0.28566926  0.33090302     0.07600
Br354      Br  0.61802731  0.36238005  0.31095856    -0.03000
C355        C  0.30982233  0.62610268  0.34592288    -0.09600
C356        C  0.33408602  0.63592843  0.37431506     0.06500
C357        C  0.32711237  0.60497511  0.40057439    -0.03400
C358        C  0.29087824  0.56933355  0.39951563    -0.07900
C359        C  0.26217560  0.56414617  0.37235405     0.05700
C360        C  0.27435826  0.59031850  0.34469802    -0.02900
Br361      Br  0.23982682  0.58227562  0.30564661    -0.02600
H362        H  0.31561506  0.64906882  0.32534474     0.09600
H363        H  0.28195534  0.54928085  0.42091650     0.07600
Br364      Br  0.36134180  0.61415312  0.43952775    -0.03000
C365        C  0.40403340  0.94021164  0.39279715    -0.09600
C366        C  0.43839711  0.90571312  0.38628853     0.06500
C367        C  0.48618040  0.92096605  0.38107940    -0.03400
C368        C  0.49822697  0.96991162  0.38199452    -0.07900
C369        C  0.46350628  0.00471307  0.38778773     0.05700
C370        C  0.41576797  0.98900432  0.39349942    -0.02900
Br371      Br  0.36349445  0.03085112  0.40159261    -0.02600
H372        H  0.36716576  0.92917302  0.39714867     0.09600
H373        H  0.53508961  0.98072003  0.37747814     0.07600
Br374      Br  0.53599961  0.87767492  0.37032032    -0.03000
C375        C  0.59625423  0.35476870  0.61860822    -0.09600
C376        C  0.62653703  0.35956339  0.64505284     0.06500
C377        C  0.61655811  0.33221359  0.67254442    -0.03400
C378        C  0.58138353  0.29614137  0.67174866    -0.07900
C379        C  0.55610557  0.28638660  0.64370766     0.05700
C380        C  0.56117624  0.31801242  0.61766554    -0.02900
Br381      Br  0.52704530  0.30763551  0.57874589    -0.02600
H382        H  0.60326796  0.37583353  0.59748203     0.09600
H383        H  0.57720361  0.27244813  0.69211571     0.07600
Br384      Br  0.65425313  0.33854194  0.71043794    -0.03000
C385        C  0.50855396  0.10576884  0.52889969    -0.09600
C386        C  0.54036852  0.13726355  0.54441092     0.06500
C387        C  0.57359589  0.16449435  0.52620372    -0.03400
C388        C  0.57206355  0.16225795  0.49276414    -0.07900
C389        C  0.53727741  0.13350784  0.47737033     0.05700
C390        C  0.50683593  0.10363788  0.49585950    -0.02900
Br391      Br  0.46073137  0.06035866  0.47707263    -0.02600
H392        H  0.48314169  0.08423636  0.54262765     0.09600
H393        H  0.59582775  0.18530890  0.47887452     0.07600
Br394      Br  0.61771227  0.20867719  0.54584560    -0.03000
C395        C  0.27975862  0.59365481  0.66746363    -0.09600
C396        C  0.26934443  0.56861006  0.63954484     0.06500
C397        C  0.29947818  0.57533292  0.61299858    -0.03400
C398        C  0.33445541  0.61237565  0.61315176    -0.07900
C399        C  0.33971910  0.64208060  0.63975116     0.05700
C400        C  0.31445771  0.63018253  0.66773640    -0.02900
Br401      Br  0.32148139  0.66677937  0.70588400    -0.02600
H402        H  0.25728316  0.58830042  0.68820147     0.09600
H403        H  0.35394081  0.62088783  0.59155381     0.07600
Br404      Br  0.28995973  0.53925439  0.57493922    -0.03000
C405        C  0.32542830  0.75461547  0.52442028    -0.09600
C406        C  0.35536243  0.78820509  0.53984700     0.06500
C407        C  0.38098502  0.82246444  0.52150897    -0.03400
C408        C  0.38052194  0.81970698  0.48839966    -0.07900
C409        C  0.35382322  0.78377978  0.47291108     0.05700
C410        C  0.32409940  0.75261666  0.49104148    -0.02900
Br411      Br  0.28390285  0.70499506  0.47134250    -0.02600
H412        H  0.30527080  0.72827161  0.53824490     0.09600
H413        H  0.40283180  0.84445845  0.47470428     0.07600
Br414      Br  0.41880572  0.87255529  0.54080256    -0.03000
C415        C  0.40664056  0.94844093  0.64215604    -0.09600
C416        C  0.43874980  0.91441828  0.63061710     0.06500
C417        C  0.48502569  0.93038828  0.62116938    -0.03400
C418        C  0.49709162  0.97925723  0.62232381    -0.07900
C419        C  0.46439703  0.01292186  0.63319262     0.05700
C420        C  0.41919305  0.99693334  0.64388741    -0.02900
Br421      Br  0.37471741  0.03850934  0.66389893    -0.02600
H422        H  0.37150387  0.93737070  0.65065177     0.09600
H423        H  0.53245700  0.99108025  0.61463057     0.07600
Br424      Br  0.53414413  0.88859214  0.60689979    -0.03000
C425        C  0.58239930  0.63514292  0.84746977    -0.09600
C426        C  0.56146328  0.64862990  0.87617885     0.06500
C427        C  0.57164918  0.62261377  0.90408464    -0.03400
C428        C  0.60622632  0.58695800  0.90346218    -0.07900
C429        C  0.63094738  0.57740229  0.87531813     0.05700
C430        C  0.61689992  0.59978367  0.84687118    -0.02900
Br431      Br  0.64797207  0.58693616  0.80728456    -0.02600
H432        H  0.57487065  0.65498371  0.82588507     0.09600
H433        H  0.61731958  0.57044454  0.92555617     0.07600
Br434      Br  0.54541367  0.63995411  0.94433326    -0.03000
C435        C  0.49688695  0.79159491  0.76369574    -0.09600
C436        C  0.46629500  0.77435512  0.78798357     0.06500
C437        C  0.41985328  0.75711661  0.77919155    -0.03400
C438        C  0.40533571  0.75838649  0.74739174    -0.07900
C439        C  0.43611037  0.77493804  0.72335802     0.05700
C440        C  0.48234792  0.79190923  0.73177782    -0.02900
Br441      Br  0.52593067  0.81942159  0.70107325    -0.02600
H442        H  0.53226358  0.80552304  0.76948938     0.09600
H443        H  0.36967906  0.74563281  0.74134414     0.07600
Br444      Br  0.37328581  0.73037994  0.80833778    -0.03000
C445        C  0.30878355  0.29258576  0.84695806    -0.09600
C446        C  0.33228329  0.28148295  0.87542009     0.06500
C447        C  0.32472897  0.31025456  0.90223697    -0.03400
C448        C  0.28978843  0.34557678  0.90128335    -0.07900
C449        C  0.26234331  0.35249632  0.87382600     0.05700
C450        C  0.27428767  0.32800338  0.84594075    -0.02900
Br451      Br  0.24114430  0.33878860  0.80665925    -0.02600
H452        H  0.31461799  0.27112219  0.82604999     0.09600
H453        H  0.28074418  0.36404692  0.92291221     0.07600
Br454      Br  0.35547364  0.29789206  0.94196958    -0.03000
C455        C  0.39855921  0.15439487  0.76777026    -0.09600
C456        C  0.43176831  0.15117721  0.79254387     0.06500
C457        C  0.48091712  0.14787195  0.78480918    -0.03400
C458        C  0.49556526  0.14875377  0.75299457    -0.07900
C459        C  0.46240079  0.15267585  0.72810069     0.05700
C460        C  0.41306281  0.15520550  0.73597420    -0.02900
Br461      Br  0.36223329  0.15833215  0.70530164    -0.02600
H462        H  0.36078147  0.15667855  0.77315348     0.09600
H463        H  0.53335379  0.14618625  0.74776319     0.07600
Br464      Br  0.53015318  0.13916327  0.81607979    -0.03000
C465        C  0.49594870  0.95360624  0.88956028    -0.09600
C466        C  0.46170158  0.91650760  0.88496648     0.06500
C467        C  0.41319235  0.92866421  0.88213136    -0.03400
C468        C  0.40010315  0.97658397  0.88415783    -0.07900
C469        C  0.43426971  0.01395446  0.88840898     0.05700
C470        C  0.48295699  0.00174916  0.89113955    -0.02900
Br471      Br  0.53427670  0.04811346  0.89585983    -0.02600
H472        H  0.53345486  0.94521543  0.89180353     0.09600
H473        H  0.36254672  0.98454026  0.88165629     0.07600
Br474      Br  0.36292759  0.88267576  0.87308158    -0.03000
C475        C  0.56480224  0.61412305  0.11172372    -0.09600
C476        C  0.55768941  0.64140783  0.13908779     0.06500
C477        C  0.58189648  0.62931496  0.16723999    -0.03400
C478        C  0.61708739  0.59474800  0.16669444    -0.07900
C479        C  0.62856049  0.57166487  0.13838376     0.05700
C480        C  0.60019842  0.57921739  0.11121805    -0.02900
Br481      Br  0.61361083  0.54849544  0.07178261    -0.02600
H482        H  0.54656817  0.62334724  0.08989389     0.09600
H483        H  0.63847062  0.58893958  0.18779062     0.07600
Br484      Br  0.57203137  0.66315759  0.20612655    -0.03000
C485        C  0.48077381  0.77448753  0.28266231    -0.09600
C486        C  0.43241918  0.76394866  0.28939042     0.06500
C487        C  0.40137728  0.75309473  0.26393801    -0.03400
C488        C  0.41858691  0.75436355  0.23268271    -0.07900
C489        C  0.46677596  0.76627027  0.22564268     0.05700
C490        C  0.49814786  0.77589760  0.25140429    -0.02900
Br491      Br  0.56516752  0.79096475  0.24649996    -0.02600
H492        H  0.50528187  0.78258388  0.30192551     0.09600
H493        H  0.39366262  0.74604809  0.21372189     0.07600
Br494      Br  0.33572853  0.73355546  0.27028152    -0.03000
C495        C  0.56968466  0.76019462  0.98946458    -0.09600
C496        C  0.54064798  0.79245834  0.97295113     0.06500
C497        C  0.51228131  0.82404349  0.99034081    -0.03400
C498        C  0.51089002  0.82114683  0.02343535    -0.07900
C499        C  0.53762155  0.78718300  0.03992896     0.05700
C500        C  0.56824431  0.75736491  0.02284428    -0.02900
Br501      Br  0.60427931  0.70902414  0.04398428    -0.02600
H502        H  0.59095485  0.73507066  0.97639981     0.09600
H503        H  0.48727091  0.84432626  0.03633410     0.07600
Br504      Br  0.47249261  0.87006725  0.96973651    -0.03000
C505        C  0.26596071  0.31457284  0.17046938    -0.09600
C506        C  0.25873917  0.34130799  0.14265091     0.06500
C507        C  0.29068257  0.33640963  0.11704706    -0.03400
C508        C  0.32550299  0.30084330  0.11833872    -0.07900
C509        C  0.32854627  0.27021447  0.14487981     0.05700
C510        C  0.30037736  0.27930161  0.17174329    -0.02900
Br511      Br  0.30424460  0.24121605  0.20976558    -0.02600
H512        H  0.24204235  0.31844540  0.19046845     0.09600
H513        H  0.34690031  0.29425764  0.09753491     0.07600
Br514      Br  0.28388197  0.37245147  0.07842127    -0.03000
C515        C  0.47421555  0.15026161  0.23510039    -0.09600
C516        C  0.42531959  0.14051277  0.22882896     0.06500
C517        C  0.39443111  0.13320871  0.25511550    -0.03400
C518        C  0.41261897  0.13582550  0.28618766    -0.07900
C519        C  0.46147546  0.14536730  0.29229788     0.05700
C520        C  0.49231485  0.15279675  0.26612983    -0.02900
Br521      Br  0.55897101  0.16949876  0.27080043    -0.02600
H522        H  0.49899632  0.15631066  0.21565374     0.09600
H523        H  0.38814992  0.12990297  0.30583192     0.07600
Br524      Br  0.32691763  0.12068871  0.25096909    -0.03000
C525        C  0.36877981  0.18707897  0.99318289    -0.09600
C526        C  0.34833037  0.14906718  0.97599488     0.06500
C527        C  0.32373427  0.11205675  0.99281871    -0.03400
C528        C  0.32490554  0.11130262  0.02635170    -0.07900
C529        C  0.34980149  0.14741008  0.04322360     0.05700
C530        C  0.36926813  0.18693543  0.02614268    -0.02900
Br531      Br  0.39875319  0.24177902  0.04615904    -0.02600
H532        H  0.38690072  0.21645362  0.98080860     0.09600
H533        H  0.30896673  0.08103275  0.03908672     0.07600
Br534      Br  0.29218807  0.05990666  0.97140014    -0.03000
C535        C  0.41166784  0.97382332  0.10790365    -0.09600
C536        C  0.43352254  0.00633335  0.12896282     0.06500
C537        C  0.46857032  0.99020030  0.15013603    -0.03400
C538        C  0.48131267  0.94213315  0.15002038    -0.07900
C539        C  0.45955573  0.90926006  0.12904904     0.05700
C540        C  0.42476410  0.92566050  0.10749602    -0.02900
Br541      Br  0.39614929  0.88517028  0.07576760    -0.02600
H542        H  0.38451411  0.98606637  0.09159506     0.09600
H543        H  0.50786998  0.93023158  0.16686925     0.07600
Br544      Br  0.49738073  0.03155138  0.18129475    -0.03000
loop_ 
_geom_bond_atom_site_label_1 
_geom_bond_atom_site_label_2 
_geom_bond_distance 
_geom_bond_site_symmetry_2 
_ccdc_geom_bond_type 
O1           Ni9   1.930       .  S
O1           C11   1.284       .  A
O2           Ni9   1.936       .  S
O2           C12   1.284       .  A
O3           Ni9   1.907       .  S
O3           C13   1.279       .  A
O4           Ni9   1.900       .  S
O4           C14   1.278       .  A
O5          Ni10   1.945       .  S
O5           C14   1.286       .  A
O6          Ni10   1.948       .  S
O6           C13   1.288       .  A
O7          Ni10   1.898       .  S
O7           C12   1.278       .  A
O8          Ni10   1.901       .  S
O8           C11   1.276       .  A
Ni9         Ni10   2.385       .  S
C11         C536   1.469       .  S
C12         C509   1.474       .  S
C13         C516   1.503       .  S
C14         C529   1.485       .  S
O15         Ni23   1.931       .  S
O15          C25   1.284       .  A
O16         Ni23   1.935       .  S
O16          C26   1.283       .  A
O17         Ni23   1.919       .  S
O17          C27   1.282       .  A
O18         Ni23   1.913       .  S
O18          C28   1.280       .  A
O19         Ni24   1.934       .  S
O19          C28   1.283       .  A
O20         Ni24   1.931       .  S
O20          C27   1.284       .  A
O21         Ni24   1.896       .  S
O21          C26   1.277       .  A
O22         Ni24   1.900       .  S
O22          C25   1.277       .  A
Ni23        Ni24   2.386       .  S
C25         C539   1.479       .  S
C26         C476   1.469       .  S
C27         C489   1.500       .  S
C28         C499   1.476       .  S
O29         Ni37   1.935       .  S
O29          C39   1.285       .  A
O30         Ni37   1.937       .  S
O30          C40   1.284       .  A
O31         Ni37   1.898       .  S
O31          C41   1.279       .  A
O32         Ni37   1.903       .  S
O32          C42   1.276       .  A
O33         Ni38   1.936       .  S
O33          C42   1.287       .  A
O34         Ni38   1.944       .  S
O34          C41   1.285       .  A
O35         Ni38   1.904       .  S
O35          C40   1.278       .  A
O36         Ni38   1.901       .  S
O36          C39   1.278       .  A
Ni37        Ni38   2.384       .  S
C39         C469   1.494       .  S
C40         C446   1.476       .  S
C41         C526   1.486       .  S
C42         C456   1.487       .  S
O43         Ni51   1.929       .  S
O43          C53   1.284       .  A
O44         Ni51   1.932       .  S
O44          C54   1.283       .  A
O45         Ni51   1.901       .  S
O45          C55   1.277       .  A
O46         Ni51   1.906       .  S
O46          C56   1.276       .  A
O47         Ni52   1.942       .  S
O47          C56   1.288       .  A
O48         Ni52   1.945       .  S
O48          C55   1.286       .  A
O49         Ni52   1.902       .  S
O49          C54   1.278       .  A
O50         Ni52   1.907       .  S
O50          C53   1.279       .  A
Ni51        Ni52   2.384       .  S
C53         C466   1.488       .  S
C54         C426   1.470       .  S
C55         C496   1.477       .  S
C56         C436   1.500       .  S
O57         Ni65   1.928       .  S
O57          C67   1.283       .  A
O58         Ni65   1.938       .  S
O58          C68   1.284       .  A
O59         Ni65   1.912       .  S
O59          C69   1.280       .  A
O60         Ni65   1.914       .  S
O60          C70   1.279       .  A
O61         Ni66   1.933       .  S
O61          C70   1.285       .  A
O62         Ni66   1.937       .  S
O62          C69   1.284       .  A
O63         Ni66   1.895       .  S
O63          C68   1.277       .  A
O64         Ni66   1.895       .  S
O64          C67   1.278       .  A
Ni65        Ni66   2.386       .  S
C67         C416   1.486       .  S
C68         C399   1.473       .  S
C69         C406   1.478       .  S
C70         C439   1.485       .  S
O71         Ni79   1.927       .  S
O71          C81   1.284       .  A
O72         Ni79   1.932       .  S
O72          C82   1.283       .  A
O73         Ni79   1.902       .  S
O73          C83   1.278       .  A
O74         Ni79   1.903       .  S
O74          C84   1.276       .  A
O75         Ni80   1.940       .  S
O75          C84   1.288       .  A
O76         Ni80   1.944       .  S
O76          C83   1.286       .  A
O77         Ni80   1.894       .  S
O77          C82   1.277       .  A
O78         Ni80   1.896       .  S
O78          C81   1.276       .  A
Ni79        Ni80   2.387       .  S
C81         C419   1.472       .  S
C82         C379   1.469       .  S
C83         C386   1.479       .  S
C84         C459   1.494       .  S
O85         Ni93   1.928       .  S
O85          C95   1.283       .  A
O86         Ni93   1.934       .  S
O86          C96   1.283       .  A
O87         Ni93   1.919       .  S
O87          C97   1.281       .  A
O88         Ni93   1.914       .  S
O88          C98   1.280       .  A
O89         Ni94   1.936       .  S
O89          C98   1.283       .  A
O90         Ni94   1.930       .  S
O90          C97   1.284       .  A
O91         Ni94   1.898       .  S
O91          C96   1.278       .  A
O92         Ni94   1.899       .  S
O92          C95   1.278       .  A
Ni93        Ni94   2.388       .  S
C95         C366   1.481       .  S
C96         C356   1.471       .  S
C97         C486   1.489       .  S
C98         C409   1.478       .  S
O99        Ni107   1.918       .  S
O99         C109   1.281       .  A
O100       Ni107   1.926       .  S
O100        C110   1.281       .  A
O101       Ni107   1.917       .  S
O101        C111   1.281       .  A
O102       Ni107   1.910       .  S
O102        C112   1.280       .  A
O103       Ni108   1.941       .  S
O103        C112   1.285       .  A
O104       Ni108   1.938       .  S
O104        C111   1.286       .  A
O105       Ni108   1.905       .  S
O105        C110   1.279       .  A
O106       Ni108   1.908       .  S
O106        C109   1.280       .  A
Ni107      Ni108   2.385       .  S
C109        C369   1.489       .  S
C110        C349   1.465       .  S
C111        C519   1.496       .  S
C112        C389   1.482       .  S
O113       Ni121   1.933       .  S
O113        C123   1.285       .  A
O114       Ni121   1.936       .  S
O114        C124   1.283       .  A
O115       Ni121   1.904       .  S
O115        C125   1.278       .  A
O116       Ni121   1.907       .  S
O116        C126   1.277       .  A
O117       Ni122   1.939       .  S
O117        C126   1.287       .  A
O118       Ni122   1.939       .  S
O118        C125   1.284       .  A
O119       Ni122   1.898       .  S
O119        C124   1.278       .  A
O120       Ni122   1.903       .  S
O120        C123   1.278       .  A
Ni121      Ni122   2.385       .  S
C123        C336   1.480   1_455  S
C124        C506   1.474       .  S
C125        C326   1.476       .  S
C126        C319   1.499       .  S
O127       Ni135   1.929       .  S
O127        C137   1.284       .  A
O128       Ni135   1.933       .  S
O128        C138   1.283       .  A
O129       Ni135   1.902       .  S
O129        C139   1.279       .  A
O130       Ni135   1.907       .  S
O130        C140   1.279       .  A
O131       Ni136   1.932       .  S
O131        C140   1.285       .  A
O132       Ni136   1.936       .  S
O132        C139   1.284       .  A
O133       Ni136   1.900       .  S
O133        C138   1.278       .  A
O134       Ni136   1.906       .  S
O134        C137   1.279       .  A
Ni135      Ni136   2.386       .  S
C137        C339   1.492       .  S
C138        C479   1.470       .  S
C139        C306   1.475       .  S
C140        C299   1.484       .  S
O141       Ni149   1.933       .  S
O141        C151   1.284       .  A
O142       Ni149   1.936       .  S
O142        C152   1.284       .  A
O143       Ni149   1.912       .  S
O143        C153   1.278       .  A
O144       Ni149   1.909       .  S
O144        C154   1.279       .  A
O145       Ni150   1.941       .  S
O145        C154   1.284       .  A
O146       Ni150   1.935       .  S
O146        C153   1.287       .  A
O147       Ni150   1.898       .  S
O147        C152   1.277       .  A
O148       Ni150   1.897       .  S
O148        C151   1.278       .  A
Ni149      Ni150   2.384       .  S
C151        C286   1.490   1_455  S
C152        C449   1.472       .  S
C153        C276   1.495       .  S
C154        C329   1.479       .  S
O155       Ni163   1.927       .  S
O155        C165   1.284       .  A
O156       Ni163   1.931       .  S
O156        C166   1.282       .  A
O157       Ni163   1.904       .  S
O157        C167   1.276       .  A
O158       Ni163   1.898       .  S
O158        C168   1.277       .  A
O159       Ni164   1.941       .  S
O159        C168   1.285       .  A
O160       Ni164   1.940       .  S
O160        C167   1.288       .  A
O161       Ni164   1.900       .  S
O161        C166   1.278       .  A
O162       Ni164   1.901       .  S
O162        C165   1.277       .  A
Ni163      Ni164   2.386       .  S
C165        C289   1.477       .  S
C166        C429   1.468       .  S
C167        C266   1.498       .  S
C168        C309   1.476       .  S
O169       Ni177   1.928       .  S
O169        C179   1.284       .  A
O170       Ni177   1.934       .  S
O170        C180   1.283       .  A
O171       Ni177   1.908       .  S
O171        C181   1.278       .  A
O172       Ni177   1.901       .  S
O172        C182   1.278       .  A
O173       Ni178   1.934       .  S
O173        C182   1.284       .  A
O174       Ni178   1.936       .  S
O174        C181   1.287       .  A
O175       Ni178   1.896       .  S
O175        C180   1.278       .  A
O176       Ni178   1.897       .  S
O176        C179   1.275       .  A
Ni177      Ni178   2.390       .  S
C179        C256   1.466       .  S
C180        C376   1.470       .  S
C181        C269   1.485       .  S
C182        C246   1.476       .  S
O183       Ni191   1.934       .  S
O183        C193   1.286       .  A
O184       Ni191   1.938       .  S
O184        C194   1.284       .  A
O185       Ni191   1.912       .  S
O185        C195   1.278       .  A
O186       Ni191   1.907       .  S
O186        C196   1.279       .  A
O187       Ni192   1.939       .  S
O187        C196   1.284       .  A
O188       Ni192   1.938       .  S
O188        C195   1.287       .  A
O189       Ni192   1.892       .  S
O189        C194   1.277       .  A
O190       Ni192   1.893       .  S
O190        C193   1.274       .  A
Ni191      Ni192   2.386       .  S
C193        C259   1.479   1_455  S
C194        C396   1.472       .  S
C195        C279   1.496       .  S
C196        C236   1.476       .  S
O197       Ni205   1.921       .  S
O197        C207   1.283       .  A
O198       Ni205   1.924       .  S
O198        C208   1.280       .  A
O199       Ni205   1.900       .  S
O199        C209   1.279       .  A
O200       Ni205   1.910       .  S
O200        C210   1.280       .  A
O201       Ni206   1.928       .  S
O201        C210   1.283       .  A
O202       Ni206   1.930       .  S
O202        C209   1.282       .  A
O203       Ni206   1.901       .  S
O203        C208   1.278       .  A
O204       Ni206   1.899       .  S
O204        C207   1.277       .  A
Ni205      Ni206   2.388       .  S
C207        C226   1.472       .  S
C208        C346   1.463       .  S
C209        C249   1.472       .  S
C210        C296   1.494       .  S
O211       Ni219   1.928       .  S
O211        C221   1.283       .  A
O212       Ni219   1.936       .  S
O212        C222   1.284       .  A
O213       Ni219   1.912       .  S
O213        C223   1.280       .  A
O214       Ni219   1.915       .  S
O214        C224   1.279       .  A
O215       Ni220   1.930       .  S
O215        C224   1.285       .  A
O216       Ni220   1.936       .  S
O216        C223   1.283       .  A
O217       Ni220   1.893       .  S
O217        C222   1.277       .  A
O218       Ni220   1.894       .  S
O218        C221   1.277       .  A
Ni219      Ni220   2.387       .  S
C221        C229   1.486   1_455  S
C222        C359   1.470       .  S
C223        C239   1.476       .  S
C224        C316   1.484       .  S
C225        C226   1.405       .  A
C225        C230   1.399       .  A
C225        H232   1.084       .  S
C226        C227   1.405       .  A
C227        C228   1.393       .  A
C227       Br234   1.922       .  S
C228        C229   1.411       .  A
C228        H233   1.083       .  S
C229        C230   1.415       .  A
C230       Br231   1.922   1_655  S
C235        C236   1.401       .  A
C235        C240   1.395       .  A
C235        H242   1.085       .  S
C236        C237   1.410       .  A
C237        C238   1.409       .  A
C237       Br244   1.916       .  S
C238        C239   1.406       .  A
C238        H243   1.084       .  S
C239        C240   1.407       .  A
C240       Br241   1.919       .  S
C245        C246   1.406       .  A
C245        C250   1.407       .  A
C245        H252   1.083       .  S
C246        C247   1.410       .  A
C247        C248   1.390       .  A
C247       Br254   1.918       .  S
C248        C249   1.399       .  A
C248        H253   1.085       .  S
C249        C250   1.410       .  A
C250       Br251   1.918       .  S
C255        C256   1.396       .  A
C255        C260   1.395       .  A
C255        H262   1.082       .  S
C256        C257   1.409       .  A
C257        C258   1.400       .  A
C257       Br264   1.919       .  S
C258        C259   1.405       .  A
C258        H263   1.082   1_655  S
C259        C260   1.418       .  A
C260       Br261   1.924       .  S
C265        C266   1.407       .  A
C265        C270   1.403       .  A
C265        H272   1.084       .  S
C266        C267   1.424       .  A
C267        C268   1.400       .  A
C267       Br274   1.924       .  S
C268        C269   1.399       .  A
C268        H273   1.084       .  S
C269        C270   1.414       .  A
C270       Br271   1.921       .  S
C275        C276   1.404       .  A
C275        C280   1.402       .  A
C275        H282   1.082       .  S
C276        C277   1.419       .  A
C277        C278   1.404       .  A
C277       Br284   1.923       .  S
C278        C279   1.405       .  A
C278        H283   1.082       .  S
C279        C280   1.419       .  A
C280       Br281   1.922       .  S
C285        C286   1.411       .  A
C285        C290   1.395       .  A
C285        H292   1.083       .  S
C286        C287   1.415       .  A
C287        C288   1.401       .  A
C287       Br294   1.922   1_655  S
C288        C289   1.406       .  A
C288        H293   1.084       .  S
C289        C290   1.405       .  A
C290       Br291   1.921       .  S
C295        C296   1.412       .  A
C295        C300   1.401       .  A
C295        H302   1.083       .  S
C296        C297   1.417       .  A
C297        C298   1.400       .  A
C297       Br304   1.922       .  S
C298        C299   1.405       .  A
C298        H303   1.084       .  S
C299        C300   1.409       .  A
C300       Br301   1.921       .  S
C305        C306   1.399       .  A
C305        C310   1.391   1_554  A
C305        H312   1.084       .  S
C306        C307   1.410       .  A
C307        C308   1.410   1_554  A
C307       Br314   1.915       .  S
C308        C309   1.406       .  A
C308        H313   1.083       .  S
C309        C310   1.410       .  A
C310       Br311   1.922       .  S
C315        C316   1.398       .  A
C315        C320   1.399       .  A
C315        H322   1.083       .  S
C316        C317   1.412       .  A
C317        C318   1.404       .  A
C317       Br324   1.921       .  S
C318        C319   1.409       .  A
C318        H323   1.083       .  S
C319        C320   1.423       .  A
C320       Br321   1.924       .  S
C325        C326   1.399       .  A
C325        C330   1.393   1_554  A
C325        H332   1.084       .  S
C326        C327   1.411       .  A
C327        C328   1.411   1_554  A
C327       Br334   1.916       .  S
C328        C329   1.407       .  A
C328        H333   1.083       .  S
C329        C330   1.408       .  A
C330       Br331   1.916       .  S
C335        C336   1.405       .  A
C335        C340   1.400       .  A
C335        H342   1.084       .  S
C336        C337   1.407       .  A
C337        C338   1.400       .  A
C337       Br344   1.921   1_655  S
C338        C339   1.412       .  A
C338        H343   1.083       .  S
C339        C340   1.416       .  A
C340       Br341   1.922       .  S
C345        C346   1.402       .  A
C345        C350   1.399       .  A
C345        H352   1.084       .  S
C346        C347   1.405       .  A
C347        C348   1.397       .  A
C347       Br354   1.918       .  S
C348        C349   1.402       .  A
C348        H353   1.084       .  S
C349        C350   1.408       .  A
C350       Br351   1.919       .  S
C355        C356   1.401       .  A
C355        C360   1.393       .  A
C355        H362   1.084       .  S
C356        C357   1.409       .  A
C357        C358   1.405       .  A
C357       Br364   1.915       .  S
C358        C359   1.404       .  A
C358        H363   1.084       .  S
C359        C360   1.408       .  A
C360       Br361   1.919       .  S
C365        C366   1.404       .  A
C365        C370   1.394       .  A
C365        H372   1.084       .  S
C366        C367   1.409       .  A
C367        C368   1.401       .  A
C367       Br374   1.921       .  S
C368        C369   1.411   1_565  A
C368        H373   1.084       .  S
C369        C370   1.415   1_545  A
C370       Br371   1.923   1_565  S
C375        C376   1.404       .  A
C375        C380   1.404       .  A
C375        H382   1.078       .  S
C376        C377   1.407       .  A
C377        C378   1.392       .  A
C377       Br384   1.920       .  S
C378        C379   1.402       .  A
C378        H383   1.084       .  S
C379        C380   1.408       .  A
C380       Br381   1.918       .  S
C385        C386   1.402       .  A
C385        C390   1.395       .  A
C385        H392   1.084       .  S
C386        C387   1.410       .  A
C387        C388   1.411       .  A
C387       Br394   1.917       .  S
C388        C389   1.408       .  A
C388        H393   1.083       .  S
C389        C390   1.409       .  A
C390       Br391   1.921       .  S
C395        C396   1.400       .  A
C395        C400   1.391       .  A
C395        H402   1.084       .  S
C396        C397   1.409       .  A
C397        C398   1.407       .  A
C397       Br404   1.916       .  S
C398        C399   1.405       .  A
C398        H403   1.083       .  S
C399        C400   1.408       .  A
C400       Br401   1.919       .  S
C405        C406   1.406       .  A
C405        C410   1.408       .  A
C405        H412   1.083       .  S
C406        C407   1.408       .  A
C407        C408   1.398       .  A
C407       Br414   1.920       .  S
C408        C409   1.402       .  A
C408        H413   1.083       .  S
C409        C410   1.410       .  A
C410       Br411   1.915       .  S
C415        C416   1.411       .  A
C415        C420   1.393       .  A
C415        H422   1.083       .  S
C416        C417   1.415       .  A
C417        C418   1.399       .  A
C417       Br424   1.922       .  S
C418        C419   1.405   1_565  A
C418        H423   1.084       .  S
C419        C420   1.404   1_545  A
C420       Br421   1.920   1_565  S
C425        C426   1.402       .  A
C425        C430   1.396       .  A
C425        H432   1.084       .  S
C426        C427   1.409       .  A
C427        C428   1.403       .  A
C427       Br434   1.918       .  S
C428        C429   1.403       .  A
C428        H433   1.084       .  S
C429        C430   1.407       .  A
C430       Br431   1.921       .  S
C435        C436   1.409       .  A
C435        C440   1.405       .  A
C435        H442   1.083       .  S
C436        C437   1.424       .  A
C437        C438   1.400       .  A
C437       Br444   1.924       .  S
C438        C439   1.398       .  A
C438        H443   1.082       .  S
C439        C440   1.413       .  A
C440       Br441   1.921       .  S
C445        C446   1.403       .  A
C445        C450   1.397       .  A
C445        H452   1.084       .  S
C446        C447   1.410       .  A
C447        C448   1.404       .  A
C447       Br454   1.914       .  S
C448        C449   1.402       .  A
C448        H453   1.084       .  S
C449        C450   1.408       .  A
C450       Br451   1.921       .  S
C455        C456   1.400       .  A
C455        C460   1.400       .  A
C455        H462   1.084       .  S
C456        C457   1.417       .  A
C457        C458   1.402       .  A
C457       Br464   1.923       .  S
C458        C459   1.405       .  A
C458        H463   1.083       .  S
C459        C460   1.422       .  A
C460       Br461   1.923       .  S
C465        C466   1.409       .  A
C465        C470   1.402   1_565  A
C465        H472   1.083       .  S
C466        C467   1.410       .  A
C467        C468   1.398       .  A
C467       Br474   1.922       .  S
C468        C469   1.411   1_565  A
C468        H473   1.083       .  S
C469        C470   1.415       .  A
C470       Br471   1.922       .  S
C475        C476   1.404       .  A
C475        C480   1.404       .  A
C475        H482   1.083       .  S
C476        C477   1.408       .  A
C477        C478   1.394       .  A
C477       Br484   1.921       .  S
C478        C479   1.401       .  A
C478        H483   1.084       .  S
C479        C480   1.409       .  A
C480       Br481   1.917       .  S
C485        C486   1.405       .  A
C485        C490   1.404       .  A
C485        H492   1.084       .  S
C486        C487   1.410       .  A
C487        C488   1.402       .  A
C487       Br494   1.921       .  S
C488        C489   1.411       .  A
C488        H493   1.083       .  S
C489        C490   1.419       .  A
C490       Br491   1.922       .  S
C495        C496   1.406       .  A
C495        C500   1.408   1_556  A
C495        H502   1.083       .  S
C496        C497   1.409       .  A
C497        C498   1.397   1_556  A
C497       Br504   1.920       .  S
C498        C499   1.400       .  A
C498        H503   1.084       .  S
C499        C500   1.409       .  A
C500       Br501   1.916       .  S
C505        C506   1.401       .  A
C505        C510   1.393       .  A
C505        H512   1.084       .  S
C506        C507   1.410       .  A
C507        C508   1.407       .  A
C507       Br514   1.918       .  S
C508        C509   1.406       .  A
C508        H513   1.081       .  S
C509        C510   1.407       .  A
C510       Br511   1.920       .  S
C515        C516   1.413       .  A
C515        C520   1.403       .  A
C515        H522   1.083       .  S
C516        C517   1.415       .  A
C517        C518   1.406       .  A
C517       Br524   1.920       .  S
C518        C519   1.410       .  A
C518        H523   1.083       .  S
C519        C520   1.411       .  A
C520       Br521   1.921       .  S
C525        C526   1.401       .  A
C525        C530   1.389   1_556  A
C525        H532   1.084       .  S
C526        C527   1.414       .  A
C527        C528   1.413   1_556  A
C527       Br534   1.917       .  S
C528        C529   1.409       .  A
C528        H533   1.084       .  S
C529        C530   1.411       .  A
C530       Br531   1.923       .  S
C535        C536   1.404   1_565  A
C535        C540   1.402       .  A
C535        H542   1.083       .  S
C536        C537   1.404   1_545  A
C537        C538   1.396       .  A
C537       Br544   1.920   1_565  S
C538        C539   1.407       .  A
C538        H543   1.083       .  S
C539        C540   1.412       .  A
C540       Br541   1.920       .  S
