geometry optimzed in LAMMPS
_audit_creation_date              2020-12-01 
_audit_creation_method            'lammps2cif' 
_symmetry_space_group_name_H-M    'P1' 
_symmetry_Int_Tables_number       1 
_symmetry_cell_setting            triclinic 
loop_ 
_symmetry_equiv_pos_as_xyz 
  x,y,z 
_cell_length_a                    46.42625346 
_cell_length_b                    46.420744117523995 
_cell_length_c                    43.672670244441186 
_cell_angle_alpha                 89.98883140633207 
_cell_angle_beta                  90.11326048867983 
_cell_angle_gamma                 90.04515719257904 
loop_ 
_atom_site_label 
_atom_site_type_symbol 
_atom_site_fract_x 
_atom_site_fract_y 
_atom_site_fract_z 
_atom_site_charge 
O1          O  0.85435945  0.42106575  0.59843288    -0.55600
C2          C  0.87410222  0.37001457  0.67108430     0.77000
O3          O  0.81405141  0.44986782  0.68003277    -0.56800
C4          C  0.83373754  0.43625736  0.58848140     0.77000
C5          C  0.78065417  0.37361572  0.64849897     0.79400
Cd6        Cd  0.83117257  0.40930402  0.64799383     1.37500
O7          O  0.87491572  0.37929409  0.64379323    -0.55600
O8          O  0.80129252  0.36949185  0.63013899    -0.54400
C9          C  0.83905050  0.45761942  0.68818037     0.79300
O10         O  0.78332670  0.39462032  0.66675850    -0.56800
O11         O  0.85276838  0.37802373  0.68693943    -0.55300
O12         O  0.81215861  0.43835819  0.60589865    -0.55200
O13         O  0.85978611  0.44332497  0.67732799    -0.54400
O14         O  0.62374914  0.12881913  0.65014844    -0.55600
C15         C  0.56697497  0.16357495  0.59707580     0.77000
O16         O  0.55047640  0.18664262  0.68471489    -0.56800
C17         C  0.63667137  0.13127704  0.67556881     0.77000
C18         C  0.62485597  0.22493997  0.65450045     0.79400
Cd19       Cd  0.59360284  0.17160779  0.65615501     1.37500
O20         O  0.58695501  0.14717347  0.60631684    -0.55600
O21         O  0.62373397  0.20798402  0.63188734    -0.54400
C22         C  0.54554606  0.16206037  0.69608129     0.79300
O23         O  0.61092480  0.21743153  0.67805351    -0.56800
O24         O  0.55950284  0.18336368  0.61529894    -0.55300
O25         O  0.63029702  0.15311240  0.69151697    -0.55200
O26         O  0.56344032  0.14252209  0.68966550    -0.54400
O27         O  0.58967134  0.80742430  0.36768881    -0.55600
C28         C  0.63388157  0.83405450  0.29411799     0.77000
O29         O  0.60948997  0.73925412  0.30073401    -0.56800
C30         C  0.57132492  0.78877454  0.37590305     0.77000
C31         C  0.54867914  0.79594282  0.27318750     0.79400
Cd32       Cd  0.59594064  0.78893419  0.31533901     1.37500
O33         O  0.61677540  0.83807886  0.31622198    -0.55600
O34         O  0.55100198  0.81042702  0.29754525    -0.54400
C35         C  0.63186534  0.73855855  0.31737851     0.79300
O36         O  0.56797634  0.77722272  0.26855959    -0.56800
O37         O  0.63370145  0.80913050  0.28253805    -0.55300
O38         O  0.56462140  0.77006940  0.35602059    -0.55200
O39         O  0.63656366  0.76064609  0.33360931    -0.54400
O40         O  0.85516440  0.55056727  0.37290422    -0.55600
C41         C  0.88300096  0.59704888  0.30498731     0.77000
O42         O  0.82707505  0.51545927  0.28324962    -0.56800
C43         C  0.83823802  0.53021353  0.37983811     0.77000
C44         C  0.78585125  0.58723160  0.31706649     0.79400
Cd45       Cd  0.83899901  0.55528382  0.31956430     1.37500
O46         O  0.88291307  0.58318196  0.32991456    -0.55600
O47         O  0.80067944  0.58484859  0.34122225    -0.54400
C48         C  0.85273600  0.50648512  0.28102844     0.79300
O49         O  0.79552762  0.57449808  0.29360482    -0.56800
O50         O  0.86180478  0.59257833  0.28735347    -0.55300
O51         O  0.82185508  0.52132849  0.35863091    -0.55200
O52         O  0.87131754  0.52022850  0.29631134    -0.54400
O53         O  0.42419832  0.81810833  0.63633241    -0.55600
C54         C  0.48592662  0.78212708  0.58821205     0.77000
O55         O  0.49418535  0.80995276  0.67007978    -0.56800
C56         C  0.41579465  0.82107977  0.66368854     0.77000
C57         C  0.42366129  0.72777683  0.64676588     0.79400
Cd58       Cd  0.45842829  0.77895933  0.64692788     1.37500
O59         O  0.46851458  0.80120434  0.59744034    -0.55600
O60         O  0.42785195  0.74245659  0.62283010    -0.54400
C61         C  0.50591061  0.79145505  0.68724627     0.79300
O62         O  0.43692771  0.73587546  0.67060879    -0.56800
O63         O  0.49081864  0.76149198  0.60650715    -0.55300
O64         O  0.42664063  0.80394909  0.68300869    -0.55200
O65         O  0.49617099  0.76599347  0.68529319    -0.54400
O66         O  0.19365981  0.53664541  0.59478651    -0.55600
C67         C  0.16633081  0.57999051  0.67137255     0.77000
O68         O  0.22548144  0.51515982  0.69127732    -0.56800
C69         C  0.21650626  0.52533209  0.58446681     0.77000
C70         C  0.26206639  0.58409104  0.64682285     0.79400
Cd71       Cd  0.21320059  0.54617192  0.64665862     1.37500
O72         O  0.18961149  0.57569831  0.68570124    -0.55600
O73         O  0.23817346  0.59116316  0.63501026    -0.54400
C74         C  0.20847747  0.49499046  0.68390723     0.79300
O75         O  0.26319253  0.55930923  0.65892337    -0.56800
O76         O  0.16495676  0.56942376  0.64465536    -0.55300
O77         O  0.23756386  0.52404716  0.60283126    -0.55200
O78         O  0.19472091  0.49840746  0.65919295    -0.54400
O79         O  0.19243066  0.38346140  0.32478376    -0.55600
C80         C  0.23444954  0.43525606  0.37515784     0.77000
O81         O  0.27720975  0.38331928  0.28999831    -0.56800
C82         C  0.19290783  0.36919495  0.30009589     0.77000
C83         C  0.22707339  0.45797180  0.27587484     0.79400
Cd84       Cd  0.23785324  0.40945345  0.31558101     1.37500
O85         O  0.22164025  0.41191366  0.36877657    -0.55600
O86         O  0.20765836  0.44393984  0.28952359    -0.54400
C87         C  0.28834623  0.37371502  0.31440127     0.79300
O88         O  0.25267085  0.44936908  0.28021172    -0.56800
O89         O  0.24955830  0.44620725  0.35399615    -0.55300
O90         O  0.21468595  0.37298576  0.28326504    -0.55200
O91         O  0.27740313  0.38249213  0.33916017    -0.54400
O92         O  0.43149308  0.10806859  0.31862237    -0.55600
C93         C  0.48019766  0.15277100  0.38561075     0.77000
O94         O  0.49619052  0.12519217  0.30171320    -0.56800
C95         C  0.42322869  0.11264944  0.29133188     0.77000
C96         C  0.42403085  0.20543996  0.32204212     0.79400
Cd97       Cd  0.45815178  0.15414409  0.32368548     1.37500
O98         O  0.45894572  0.13715993  0.37790749    -0.55600
O99         O  0.41742377  0.18405123  0.33858266    -0.54400
C100        C  0.50942111  0.14585087  0.28912392     0.79300
O101        O  0.44671229  0.20300529  0.30621946    -0.56800
O102        O  0.49064779  0.16843363  0.36475085    -0.55300
O103        O  0.43001010  0.13680194  0.28004010    -0.55200
O104        O  0.49916156  0.17087015  0.29294104    -0.54400
O105        O  0.67154098  0.89108003  0.82053658    -0.55600
C106        C  0.71375225  0.93887751  0.87414059     0.77000
O107        O  0.75900343  0.88347515  0.84216174    -0.56800
C108        C  0.67437347  0.87212573  0.79992170     0.77000
C109        C  0.71731547  0.95743391  0.77315814     0.79400
Cd110      Cd  0.72094524  0.91054061  0.81607677     1.37500
O111        O  0.70398068  0.91377078  0.86947141    -0.55600
O112        O  0.69799843  0.93834729  0.77523599    -0.54400
C113        C  0.77388973  0.87798419  0.81870075     0.79300
O114        O  0.73921400  0.95408609  0.79004118    -0.56800
O115        O  0.72634611  0.95067476  0.85176615    -0.55300
O116        O  0.69911054  0.87023903  0.78796698    -0.55200
O117        O  0.76441072  0.88787478  0.79364995    -0.54400
O118        O  0.92044665  0.62092406  0.83637007    -0.55600
C119        C  0.97510853  0.66031387  0.89391828     0.77000
O120        O  0.98825827  0.67711076  0.79583736    -0.56800
C121        C  0.90977521  0.62355331  0.80981496     0.77000
C122        C  0.91761316  0.71818656  0.83383789     0.79400
Cd123      Cd  0.94999932  0.66491232  0.83371685     1.37500
O124        O  0.95222174  0.64701162  0.88697361    -0.55600
O125        O  0.91089409  0.69686142  0.85036059    -0.54400
C126        C  0.99764079  0.65156135  0.79353201     0.79300
O127        O  0.94001505  0.71520526  0.81765674    -0.56800
O128        O  0.98589031  0.67590141  0.87312804    -0.55300
O129        O  0.91692474  0.64593971  0.79515177    -0.55200
O130        O  0.98520709  0.63290877  0.80995101    -0.54400
O131        O  0.68396047  0.07978121  0.14448358    -0.55600
C132        C  0.72211294  0.02795639  0.08399222     0.77000
O133        O  0.77920870  0.06069138  0.15576832    -0.56800
C134        C  0.68406544  0.08516335  0.17289489     0.77000
C135        C  0.72246038  0.99841726  0.18104726     0.79400
Cd136      Cd  0.72811197  0.05014078  0.14522542     1.37500
O137        O  0.70147349  0.04043538  0.09749215    -0.55600
O138        O  0.70945117  0.00238089  0.15599362    -0.54400
C139        C  0.77944755  0.08500182  0.14261789     0.79300
O140        O  0.73942018  0.01824876  0.18952708    -0.56800
O141        O  0.74562309  0.02637102  0.09865975    -0.55300
O142        O  0.70521619  0.07541960  0.18788790    -0.55200
O143        O  0.75596821  0.09281752  0.13043082    -0.54400
O144        O  0.94296692  0.33161446  0.15373133    -0.55600
C145        C  0.99486394  0.29174864  0.10081677     0.77000
O146        O  0.00900201  0.26810286  0.19280885    -0.56800
C147        C  0.92923624  0.33019698  0.17866844     0.77000
C148        C  0.93539869  0.23327658  0.15557241     0.79400
Cd149      Cd  0.96866771  0.28566549  0.15985790     1.37500
O150        O  0.97285698  0.30611475  0.10838211    -0.55600
O151        O  0.93883660  0.25015339  0.13319373    -0.54400
C152        C  0.01668840  0.29307057  0.20118833     0.79300
O153        O  0.94749632  0.24058819  0.18038345    -0.56800
O154        O  0.00489947  0.27485138  0.12092484    -0.55300
O155        O  0.93267843  0.30736768  0.19410915    -0.55200
O156        O  0.00223949  0.31378677  0.19045234    -0.54400
O157        O  0.31729285  0.00401076  0.82313046    -0.55600
C158        C  0.36290774  0.08427061  0.77772144     0.77000
O159        O  0.30071587  0.00045191  0.76047297    -0.56800
C160        C  0.32576525  0.01801585  0.84629625     0.77000
C161        C  0.26434699  0.07698633  0.78285008     0.79400
Cd162      Cd  0.31669855  0.04446550  0.78773028     1.37500
O163        O  0.35961719  0.07197611  0.80336788    -0.55600
O164        O  0.26895059  0.06043020  0.80528330    -0.54400
C165        C  0.32434343  0.99691788  0.74658356     0.79300
O166        O  0.28322672  0.07733882  0.76215788    -0.56800
O167        O  0.34443868  0.07839389  0.75735881    -0.55300
O168        O  0.32977079  0.04478789  0.84249289    -0.55200
O169        O  0.34323297  0.01614041  0.75068639    -0.54400
O170        O  0.11370769  0.33507904  0.82574912    -0.55600
C171        C  0.07342144  0.29029181  0.88680884     0.77000
O172        O  0.04910076  0.27161074  0.79703648    -0.56800
C173        C  0.13252477  0.33071553  0.80538121     0.77000
C174        C  0.12115977  0.23208300  0.81449444     0.79400
Cd175      Cd  0.09326597  0.28631113  0.82475157     1.37500
O176        O  0.09884136  0.29728099  0.87953945    -0.55600
O177        O  0.12452608  0.24594979  0.83920180    -0.54400
C178        C  0.04403824  0.29647552  0.78643223     0.79300
O179        O  0.10422145  0.24308570  0.79507062    -0.56800
O180        O  0.05773366  0.28072723  0.86541959    -0.55300
O181        O  0.13411246  0.30528531  0.79512902    -0.55200
O182        O  0.06161394  0.31604581  0.79395167    -0.54400
O183        O  0.12915831  0.62739261  0.14744918    -0.55600
C184        C  0.06951015  0.66647869  0.10101181     0.77000
O185        O  0.06452943  0.69221046  0.19146076    -0.56800
C186        C  0.14471149  0.62889813  0.17123919     0.77000
C187        C  0.13866601  0.72144618  0.14778671     0.79400
Cd188      Cd  0.10237892  0.67226094  0.15655625     1.37500
O189        O  0.08374147  0.64569209  0.11206776    -0.55600
O190        O  0.13475355  0.70276918  0.12713232    -0.54400
C191        C  0.05818678  0.66793404  0.20281732     0.79300
O192        O  0.12541096  0.71746785  0.17275638    -0.56800
O193        O  0.07023682  0.68977545  0.11600488    -0.55300
O194        O  0.14132186  0.65108615  0.18769352    -0.55200
O195        O  0.07267481  0.64682860  0.19317743    -0.54400
O196        O  0.35928834  0.90538252  0.06092658    -0.55600
C197        C  0.39156624  0.86748559  0.13779941     0.77000
O198        O  0.33237980  0.93676623  0.15795545    -0.56800
C199        C  0.34238566  0.92578815  0.05405784     0.77000
C200        C  0.29559465  0.86784597  0.11957110     0.79400
Cd201      Cd  0.34564005  0.90363815  0.11554445     1.37500
O202        O  0.39523908  0.88415383  0.11521204    -0.55600
O203        O  0.29815898  0.89040598  0.13565315    -0.54400
C204        C  0.35348364  0.95362655  0.15394515     0.79300
O205        O  0.31580671  0.86266108  0.10097183    -0.56800
O206        O  0.36655291  0.86697806  0.14909647    -0.55300
O207        O  0.32660409  0.93510881  0.07544615    -0.55200
O208        O  0.37030272  0.94729207  0.13225638    -0.54400
C209        C  0.19036933  0.78264202  0.16389438     0.14900
C210        C  0.19983374  0.78957436  0.13424930     0.01800
C211        C  0.18745413  0.77551652  0.10895986     0.16800
C212        C  0.16705523  0.75380734  0.11329560     0.26200
C213        C  0.15826415  0.74611568  0.14305287    -0.40100
C214        C  0.16955995  0.76130019  0.16825807     0.33300
C215        C  0.22382687  0.81010401  0.12980010     0.01900
F216        F  0.19539921  0.78261490  0.08000592    -0.12400
F217        F  0.16152903  0.75462645  0.19728154    -0.13000
C218        C  0.24857825  0.80142629  0.11382603     0.16800
C219        C  0.27165198  0.82034426  0.11007285     0.26200
C220        C  0.27063731  0.84825872  0.12267215    -0.40100
C221        C  0.24591344  0.85681914  0.13896004     0.33200
C222        C  0.22261810  0.83798521  0.14222058     0.14900
F223        F  0.25080629  0.77422071  0.10263283    -0.12400
F224        F  0.24415097  0.88343184  0.15170497    -0.12900
F225        F  0.29532793  0.81089609  0.09488653    -0.15200
F226        F  0.19876336  0.84706217  0.15733980    -0.13800
F227        F  0.20228884  0.79554542  0.18878075    -0.13800
F228        F  0.15610530  0.74021389  0.08831220    -0.15200
C229        C  0.35114125  0.00346863  0.92744715     0.14900
C230        C  0.33836007  0.97659756  0.93331411     0.01800
C231        C  0.32226924  0.96302587  0.91024431     0.16800
C232        C  0.31838228  0.97641086  0.88190615     0.26200
C233        C  0.33056320  0.00369092  0.87612436    -0.40100
C234        C  0.34726760  0.01696007  0.89910221     0.33300
C235        C  0.34010852  0.96361339  0.96413044     0.01900
F236        F  0.30937735  0.93724786  0.91557966    -0.12400
F237        F  0.36003392  0.04286973  0.89414228    -0.13000
C238        C  0.32776612  0.97794841  0.98912738     0.16800
C239        C  0.32831028  0.96554179  0.01823157     0.26200
C240        C  0.34137891  0.93849950  0.02295226    -0.40100
C241        C  0.35384219  0.92418045  0.99778325     0.33200
C242        C  0.35308895  0.93662120  0.96858825     0.14900
F243        F  0.31466493  0.00383848  0.98519299    -0.12400
F244        F  0.36644656  0.89799878  0.00126878    -0.12900
F245        F  0.31631490  0.98028416  0.04182600    -0.15200
F246        F  0.36522967  0.92244408  0.94468102    -0.13800
F247        F  0.36736356  0.01662462  0.94925801    -0.13800
F248        F  0.30185370  0.96302358  0.86052290    -0.15200
C249        C  0.17141768  0.16866974  0.82428951     0.14900
C250        C  0.17245086  0.15779781  0.79438218     0.01800
C251        C  0.15488990  0.16976452  0.77160603     0.16800
C252        C  0.13708957  0.19314520  0.77843757     0.26200
C253        C  0.13700050  0.20511365  0.80815929    -0.40100
C254        C  0.15382687  0.19210648  0.83119997     0.33300
C255        C  0.19373428  0.13554465  0.78683472     0.01900
F256        F  0.15552577  0.15920363  0.74262135    -0.12400
F257        F  0.15390044  0.20243616  0.86028333    -0.13000
C258        C  0.19058911  0.10752631  0.79833700     0.16800
C259        C  0.21318299  0.08783795  0.79585392     0.26200
C260        C  0.23907551  0.09598158  0.78164624    -0.40100
C261        C  0.24154294  0.12361427  0.76864241     0.33200
C262        C  0.21902096  0.14331638  0.77137301     0.14900
F263        F  0.16601682  0.09967065  0.81292842    -0.12400
F264        F  0.26653019  0.13231997  0.75539629    -0.12900
F265        F  0.21001371  0.06105763  0.80788581    -0.15200
F266        F  0.22262175  0.17059960  0.76079235    -0.13800
F267        F  0.18853366  0.15735796  0.84649284    -0.13800
F268        F  0.12083126  0.20464937  0.75564276    -0.15200
C269        C  0.00976001  0.31687507  0.01973103     0.14900
C270        C  0.03106354  0.29731220  0.01056581     0.01800
C271        C  0.04112964  0.27657787  0.03131876     0.16800
C272        C  0.02965299  0.27498753  0.06077618     0.26200
C273        C  0.00789005  0.29425507  0.07003001    -0.40100
C274        C  0.99824080  0.31541855  0.04922020     0.33300
C275        C  0.04168896  0.29731364  0.97882067     0.01900
F276        F  0.06139747  0.25716395  0.02263331    -0.12400
F277        F  0.97753731  0.33462774  0.05721601    -0.13000
C278        C  0.07081743  0.30273260  0.97259811     0.16800
C279        C  0.08117535  0.30082100  0.94264898     0.26200
C280        C  0.06250295  0.29319920  0.91846006    -0.40100
C281        C  0.03312512  0.28839816  0.92484323     0.33200
C282        C  0.02287359  0.29044235  0.95476313     0.14900
F283        F  0.08921782  0.30982186  0.99560672    -0.12400
F284        F  0.01419962  0.28160892  0.90221939    -0.12900
F285        F  0.10952836  0.30608420  0.93750998    -0.15200
F286        F  0.99465906  0.28486651  0.96042133    -0.13800
F287        F  0.00007696  0.33734150  0.00002011    -0.13800
F288        F  0.03933970  0.25400641  0.07984522    -0.15200
C289        C  0.85520578  0.11303193  0.15731407     0.14900
C290        C  0.85390649  0.14045222  0.14384001     0.01800
C291        C  0.82860322  0.14901897  0.12872993     0.16800
C292        C  0.80467374  0.13080143  0.12773537     0.26200
C293        C  0.80551656  0.10354086  0.14196369    -0.40100
C294        C  0.83126485  0.09469875  0.15638459     0.33300
C295        C  0.87804897  0.16106756  0.14698380     0.01900
F296        F  0.82666973  0.17561513  0.11591925    -0.12400
F297        F  0.83324463  0.06850671  0.17005600    -0.13000
C298        C  0.89079257  0.17319386  0.12086189     0.16800
C299        C  0.91030648  0.19597204  0.12369855     0.26200
C300        C  0.91754271  0.20695608  0.15280973    -0.40100
C301        C  0.90611796  0.19352719  0.17903284     0.33200
C302        C  0.88645484  0.17084312  0.17610808     0.14900
F303        F  0.88374809  0.16339701  0.09251755    -0.12400
F304        F  0.91266334  0.20333727  0.20749314    -0.12900
F305        F  0.92170436  0.20756859  0.09786556    -0.15200
F306        F  0.87430103  0.15957542  0.20170692    -0.13800
F307        F  0.87965003  0.10407700  0.17152269    -0.13800
F308        F  0.78049554  0.14028154  0.11339681    -0.15200
C309        C  0.02900025  0.66776979  0.95861948     0.14900
C310        C  0.01330235  0.65716779  0.98359012     0.01800
C311        C  0.98558648  0.64594370  0.97887280     0.16800
C312        C  0.97324741  0.64634422  0.94959387     0.26200
C313        C  0.98853913  0.65805577  0.92462247    -0.40100
C314        C  0.01680816  0.66820091  0.92940510     0.33300
C315        C  0.02564158  0.65917295  0.01464761     0.01900
F316        F  0.97013745  0.63552196  0.00281314    -0.12400
F317        F  0.03278527  0.67856236  0.90583360    -0.13000
C318        C  0.03070257  0.68634410  0.02764255     0.16800
C319        C  0.04432907  0.68872982  0.05604683     0.26200
C320        C  0.05337002  0.66386798  0.07188496    -0.40100
C321        C  0.04761309  0.63658056  0.05905725     0.33200
C322        C  0.03371332  0.63429042  0.03071116     0.14900
F323        F  0.02267496  0.71063722  0.01254477    -0.12400
F324        F  0.05557338  0.61208407  0.07379513    -0.12900
F325        F  0.04945077  0.71545117  0.06748306    -0.15200
F326        F  0.02893929  0.60782243  0.01848275    -0.13800
F327        F  0.05621352  0.67785655  0.96264407    -0.13800
F328        F  0.94606530  0.63607385  0.94595958    -0.15200
C329        C  0.69982448  0.95199589  0.95863418     0.14900
C330        C  0.71060708  0.98003674  0.96236590     0.01800
C331        C  0.72072708  0.99515380  0.93671091     0.16800
C332        C  0.72107742  0.98207200  0.90790496     0.26200
C333        C  0.71124916  0.95351288  0.90420084    -0.40100
C334        C  0.70013737  0.93880950  0.92984536     0.33300
C335        C  0.71319518  0.99274781  0.99329739     0.01900
F336        F  0.73061725  0.02255692  0.93966504    -0.12400
F337        F  0.69044717  0.91130382  0.92740518    -0.13000
C338        C  0.74053229  0.99952956  0.00507250     0.16800
C339        C  0.74343957  0.01079428  0.03457390     0.26200
C340        C  0.71896510  0.01581000  0.05279933    -0.40100
C341        C  0.69154901  0.00881200  0.04099352     0.33200
C342        C  0.68872394  0.99734389  0.01148980     0.14900
F343        F  0.76454166  0.99467772  0.98812989    -0.12400
F344        F  0.66751454  0.01233903  0.05825199    -0.12900
F345        F  0.77025822  0.01697904  0.04514989    -0.15200
F346        F  0.66208235  0.99087004  0.00058445    -0.13800
F347        F  0.69015429  0.93688606  0.98317565    -0.13800
F348        F  0.73153936  0.99730520  0.88381032    -0.15200
C349        C  0.83397832  0.82679307  0.79669074     0.14900
C350        C  0.84476209  0.81902684  0.82560876     0.01800
C351        C  0.83465220  0.83338333  0.85173262     0.16800
C352        C  0.81263444  0.85374497  0.84928391     0.26200
C353        C  0.80022379  0.86004929  0.82058064    -0.40100
C354        C  0.81196202  0.84724562  0.79414126     0.33300
C355        C  0.86429944  0.79405117  0.82887831     0.01900
F356        F  0.84557563  0.82700911  0.87979062    -0.12400
F357        F  0.80115283  0.85327425  0.76595041    -0.13000
C358        C  0.89163513  0.79395271  0.81522893     0.16800
C359        C  0.90930497  0.76957574  0.81735708     0.26200
C360        C  0.89979935  0.74475872  0.83304175    -0.40100
C361        C  0.87246113  0.74522042  0.84707400     0.33200
C362        C  0.85495371  0.76959597  0.84495984     0.14900
F363        F  0.90121885  0.81751765  0.79989488    -0.12400
F364        F  0.86215557  0.72181537  0.86216559    -0.12900
F365        F  0.93566140  0.77031888  0.80398394    -0.15200
F366        F  0.82832111  0.76897669  0.85777695    -0.13800
F367        F  0.84352949  0.81328069  0.77108170    -0.13800
F368        F  0.80303801  0.86676162  0.87516690    -0.15200
C369        C  0.56207730  0.10988057  0.23605745     0.14900
C370        C  0.58528096  0.12932164  0.23652525     0.01800
C371        C  0.58329209  0.15460329  0.25409433     0.16800
C372        C  0.55836074  0.16034278  0.27096174     0.26200
C373        C  0.53532323  0.14068316  0.27069098    -0.40100
C374        C  0.53732083  0.11549945  0.25300737     0.33300
C375        C  0.61176353  0.12235961  0.21941970     0.01900
F376        F  0.60547224  0.17366524  0.25489214    -0.12400
F377        F  0.51509658  0.09647810  0.25179425    -0.13000
C378        C  0.61044443  0.11725116  0.18777577     0.16800
C379        C  0.63437297  0.10642812  0.17224775     0.26200
C380        C  0.66018102  0.10067555  0.18814829    -0.40100
C381        C  0.66191654  0.10757916  0.21956595     0.33200
C382        C  0.63784800  0.11817107  0.23506126     0.14900
F383        F  0.58557290  0.12185714  0.17210573    -0.12400
F384        F  0.68654866  0.10309149  0.23568373    -0.12900
F385        F  0.63171112  0.10031449  0.14197840    -0.15200
F386        F  0.63954556  0.12272476  0.26573258    -0.13800
F387        F  0.56368358  0.08504924  0.21970990    -0.13800
F388        F  0.55710773  0.18456380  0.28833432    -0.15200
C389        C  0.38282618  0.07693261  0.22580586     0.14900
C390        C  0.38326259  0.04784943  0.23471638     0.01800
C391        C  0.39495345  0.04049257  0.26339072     0.16800
C392        C  0.40680587  0.06169699  0.28240976     0.26200
C393        C  0.40753922  0.09070975  0.27296863    -0.40100
C394        C  0.39497853  0.09812550  0.24459318     0.33300
C395        C  0.37355857  0.02500741  0.21324476     0.01900
F396        F  0.39629691  0.01251106  0.27233738    -0.12400
F397        F  0.39483807  0.12584254  0.23464272    -0.13000
C398        C  0.38608441  0.02286241  0.18406298     0.16800
C399        C  0.37870294  0.00027636  0.16445527     0.26200
C400        C  0.35885735  0.97903996  0.17371077    -0.40100
C401        C  0.34553994  0.98172712  0.20254000     0.33200
C402        C  0.35286777  0.00450743  0.22212119     0.14900
F403        F  0.40642546  0.04204471  0.17492419    -0.12400
F404        F  0.32612666  0.96185787  0.21226600    -0.12900
F405        F  0.39133023  0.99909333  0.13646083    -0.15200
F406        F  0.33993362  0.00641421  0.24990299    -0.13800
F407        F  0.37097636  0.08477822  0.19859572    -0.13800
F408        F  0.41883987  0.05351011  0.30938998    -0.15200
C409        C  0.17744814  0.55450768  0.17812841     0.14900
C410        C  0.19497457  0.55773168  0.20412041     0.01800
C411        C  0.19919997  0.58529079  0.21653882     0.16800
C412        C  0.18418429  0.60895665  0.20465396     0.26200
C413        C  0.16463020  0.60533611  0.18017766    -0.40100
C414        C  0.16239918  0.57804150  0.16621848     0.33300
C415        C  0.20413503  0.53190279  0.22135575     0.01900
F416        F  0.21616070  0.58889949  0.24161281    -0.12400
F417        F  0.14414898  0.57353281  0.14236359    -0.13000
C418        C  0.23329684  0.52479026  0.22539468     0.16800
C419        C  0.24105159  0.50049391  0.24273064     0.26200
C420        C  0.21964574  0.48312541  0.25637753    -0.40100
C421        C  0.19045637  0.49044257  0.25189493     0.33200
C422        C  0.18289609  0.51454929  0.23473462     0.14900
F423        F  0.25415937  0.54126016  0.21245457    -0.12400
F424        F  0.16893432  0.47446007  0.26432035    -0.12900
F425        F  0.26940642  0.49420694  0.24634666    -0.15200
F426        F  0.15459017  0.52141575  0.23174142    -0.13800
F427        F  0.17347611  0.52806184  0.16550504    -0.13800
F428        F  0.18781589  0.63510047  0.21805487    -0.15200
C429        C  0.08871825  0.28494767  0.24159705     0.14900
C430        C  0.09140993  0.31203362  0.25570978     0.01800
C431        C  0.06840271  0.33157678  0.25408809     0.16800
C432        C  0.04367099  0.32479706  0.23742255     0.26200
C433        C  0.04143014  0.29830800  0.22188344    -0.40100
C434        C  0.06384950  0.27805651  0.22487485     0.33300
C435        C  0.11907539  0.32153510  0.26921374     0.01900
F436        F  0.07054151  0.35802257  0.26720628    -0.12400
F437        F  0.06240990  0.25222699  0.21037647    -0.13000
C438        C  0.14353416  0.32390619  0.25053675     0.16800
C439        C  0.16820546  0.33795272  0.26119574     0.26200
C440        C  0.16873826  0.35023468  0.29073317    -0.40100
C441        C  0.14481839  0.34617269  0.31008617     0.33200
C442        C  0.12023721  0.33190666  0.29940461     0.14900
F443        F  0.14282485  0.31447850  0.22110527    -0.12400
F444        F  0.14464856  0.35697940  0.33897921    -0.12900
F445        F  0.19089054  0.34088496  0.24187095    -0.15200
F446        F  0.09706779  0.32924347  0.31811772    -0.13800
F447        F  0.11053130  0.26554299  0.24331135    -0.13800
F448        F  0.02215564  0.34455474  0.23595128    -0.15200
C449        C  0.33511285  0.31128826  0.28971398     0.14900
C450        C  0.35113079  0.30603892  0.31644461     0.01800
C451        C  0.34793391  0.32442105  0.34173125     0.16800
C452        C  0.32832756  0.34720533  0.34068709     0.26200
C453        C  0.31173163  0.35214395  0.31417568    -0.40100
C454        C  0.31572598  0.33426095  0.28847873     0.33300
C455        C  0.37036052  0.28076603  0.31833525     0.01900
F456        F  0.36363949  0.32009242  0.36759030    -0.12400
F457        F  0.29973065  0.33793371  0.26270971    -0.13000
C458        C  0.39294294  0.27732413  0.29733588     0.16800
C459        C  0.41068188  0.25305434  0.29871460     0.26200
C460        C  0.40601588  0.23169585  0.32112064    -0.40100
C461        C  0.38352958  0.23544429  0.34236758     0.33200
C462        C  0.36585619  0.25970774  0.34091121     0.14900
F463        F  0.39790569  0.29760503  0.27556011    -0.12400
F464        F  0.37854191  0.21566767  0.36465671    -0.12900
F465        F  0.43212186  0.25036690  0.27781216    -0.15200
F466        F  0.34385737  0.26230938  0.36117150    -0.13800
F467        F  0.33722380  0.29330218  0.26529775    -0.13800
F468        F  0.32535682  0.36418867  0.36579078    -0.15200
C469        C  0.18751370  0.37068682  0.75750212     0.14900
C470        C  0.17872601  0.39931997  0.76168802     0.01800
C471        C  0.15689563  0.40555361  0.78282596     0.16800
C472        C  0.14293345  0.38330885  0.79843562     0.26200
C473        C  0.15050090  0.35435142  0.79297758    -0.40100
C474        C  0.17361175  0.34835030  0.77308798     0.33300
C475        C  0.18961152  0.42228478  0.74140652     0.01900
F476        F  0.14773095  0.43307915  0.78675766    -0.12400
F477        F  0.18218300  0.32082616  0.76789376    -0.13000
C478        C  0.18203081  0.42198102  0.71031591     0.16800
C479        C  0.18911548  0.44515121  0.69142477     0.26200
C480        C  0.20400399  0.46916576  0.70329342    -0.40100
C481        C  0.21265589  0.46885335  0.73427689     0.33200
C482        C  0.20533069  0.44561716  0.75320855     0.14900
F483        F  0.16647818  0.39977539  0.69856500    -0.12400
F484        F  0.22708615  0.49149821  0.74663971    -0.12900
F485        F  0.18076015  0.44426846  0.66162510    -0.15200
F486        F  0.21300853  0.44612138  0.78321988    -0.13800
F487        F  0.20888289  0.36432409  0.73743500    -0.13800
F488        F  0.12080566  0.39012974  0.81737760    -0.15200
C489        C  0.12154991  0.62024432  0.73008821     0.14900
C490        C  0.09392277  0.61857023  0.71718292     0.01800
C491        C  0.09047158  0.60641938  0.68796925     0.16800
C492        C  0.11421894  0.59515578  0.67226833     0.26200
C493        C  0.14182516  0.59545149  0.68580884    -0.40100
C494        C  0.14528914  0.60882996  0.71461244     0.33300
C495        C  0.06854198  0.62749556  0.73527634     0.01900
F496        F  0.06392966  0.60491276  0.67495715    -0.12400
F497        F  0.17153309  0.61026019  0.72830899    -0.13000
C498        C  0.06380147  0.65660071  0.74239218     0.16800
C499        C  0.04051169  0.66464056  0.76091422     0.26200
C500        C  0.02175883  0.64357454  0.77290421    -0.40100
C501        C  0.02654028  0.61441569  0.76537259     0.33200
C502        C  0.04966100  0.60652475  0.74673501     0.14900
F503        F  0.08183032  0.67719555  0.73145081    -0.12400
F504        F  0.00881463  0.59339049  0.77597052    -0.12900
F505        F  0.03679620  0.69293319  0.76768053    -0.15200
F506        F  0.05410598  0.57821424  0.74050384    -0.13800
F507        F  0.12532071  0.63174070  0.75840529    -0.13800
F508        F  0.10990582  0.58302746  0.64434835    -0.15200
C509        C  0.24777647  0.49702998  0.51009755     0.14900
C510        C  0.22281885  0.48965315  0.49369182     0.01800
C511        C  0.19570688  0.49478828  0.50680612     0.16800
C512        C  0.19356902  0.50687254  0.53608068     0.26200
C513        C  0.21858032  0.51385181  0.55285254    -0.40100
C514        C  0.24572796  0.50894239  0.53940721     0.33300
C515        C  0.22522093  0.47600993  0.46319017     0.01900
F516        F  0.17127819  0.48813678  0.49117814    -0.12400
F517        F  0.27039512  0.51573320  0.55453168    -0.13000
C518        C  0.21471338  0.44800466  0.45839909     0.16800
C519        C  0.21785922  0.43465723  0.42990429     0.26200
C520        C  0.23156636  0.44915747  0.40556799    -0.40100
C521        C  0.24190208  0.47735531  0.41046013     0.33200
C522        C  0.23874727  0.49060325  0.43900503     0.14900
F523        F  0.20192360  0.43331741  0.48158275    -0.12400
F524        F  0.25473507  0.49237770  0.38755168    -0.12900
F525        F  0.20774625  0.40740290  0.42635960    -0.15200
F526        F  0.24856126  0.51791651  0.44294673    -0.13800
F527        F  0.27421896  0.49202661  0.49796769    -0.13800
F528        F  0.16701618  0.51099836  0.54827314    -0.15200
C529        C  0.37083220  0.87113681  0.71277445     0.14900
C530        C  0.36177253  0.89155169  0.69109385     0.01800
C531        C  0.36824012  0.88729323  0.66006863     0.16800
C532        C  0.38481583  0.86373481  0.65094038     0.26200
C533        C  0.39526510  0.84395053  0.67278448    -0.40100
C534        C  0.38740722  0.84751166  0.70374953     0.33300
C535        C  0.34923995  0.91910183  0.70137393     0.01900
F536        F  0.35943381  0.90668282  0.63873916    -0.12400
F537        F  0.39680632  0.82894509  0.72562091    -0.13000
C538        C  0.36464854  0.94469574  0.69647664     0.16800
C539        C  0.35536180  0.97044069  0.70949160     0.26200
C540        C  0.33058452  0.97105545  0.72801368    -0.40100
C541        C  0.31409963  0.94572047  0.73130795     0.33200
C542        C  0.32349748  0.91987098  0.71818247     0.14900
F543        F  0.38979341  0.94442422  0.68063762    -0.12400
F544        F  0.28981287  0.94551693  0.74857980    -0.12900
F545        F  0.37138212  0.99454321  0.70491199    -0.15200
F546        F  0.30800789  0.89541382  0.72267544    -0.13800
F547        F  0.36525199  0.87509779  0.74300270    -0.13800
F548        F  0.39158948  0.86108696  0.62084961    -0.15200
C549        C  0.55735911  0.83743578  0.73353476     0.14900
C550        C  0.57556171  0.81672547  0.74660819     0.01800
C551        C  0.57034937  0.78737368  0.74106274     0.16800
C552        C  0.54732346  0.77887042  0.72228594     0.26200
C553        C  0.52951159  0.79972339  0.70839974    -0.40100
C554        C  0.53466787  0.82910334  0.71456013     0.33300
C555        C  0.60139919  0.82638199  0.76350684     0.01900
F556        F  0.58780787  0.76703721  0.75351202    -0.12400
F557        F  0.51791067  0.84999332  0.70202913    -0.13000
C558        C  0.59869133  0.84215559  0.79076526     0.16800
C559        C  0.62270413  0.85585636  0.80364428     0.26200
C560        C  0.64983999  0.85415625  0.78924803    -0.40100
C561        C  0.65262814  0.83695348  0.76278851     0.33200
C562        C  0.62861174  0.82325519  0.75008421     0.14900
F563        F  0.57252115  0.84518488  0.80422310    -0.12400
F564        F  0.67823771  0.83464434  0.74804751    -0.12900
F565        F  0.61907235  0.87162464  0.82953057    -0.15200
F566        F  0.63154897  0.80856808  0.72338474    -0.13800
F567        F  0.56231291  0.86594587  0.73817297    -0.13800
F568        F  0.54306273  0.75036442  0.71699995    -0.15200
C569        C  0.30891278  0.64962336  0.63200767     0.14900
C570        C  0.33494547  0.64135217  0.64569491     0.01800
C571        C  0.33721153  0.61426223  0.65962976     0.16800
C572        C  0.31362364  0.59552257  0.65992921     0.26200
C573        C  0.28725403  0.60374786  0.64639258    -0.40100
C574        C  0.28522958  0.63106336  0.63236469     0.33300
C575        C  0.35938486  0.66155544  0.64636897     0.01900
F576        F  0.36236527  0.60597506  0.67286325    -0.12400
F577        F  0.26031459  0.64003855  0.61913047    -0.13000
C578        C  0.36671176  0.67552445  0.67375568     0.16800
C579        C  0.38854419  0.69623151  0.67415781     0.26200
C580        C  0.40323183  0.70340907  0.64703713    -0.40100
C581        C  0.39626519  0.68881169  0.61972373     0.33200
C582        C  0.37449917  0.66798622  0.61944777     0.14900
F583        F  0.35178200  0.67000958  0.69981275    -0.12400
F584        F  0.41032022  0.69486192  0.59324690    -0.12900
F585        F  0.39411329  0.71042053  0.70070303    -0.15200
F586        F  0.36787181  0.65432474  0.59285582    -0.13800
F587        F  0.30628499  0.67600374  0.61884533    -0.13800
F588        F  0.31667582  0.56943372  0.67360169    -0.15200
C589        C  0.93252482  0.64386099  0.25719655     0.14900
C590        C  0.95764104  0.64389349  0.27514277     0.01800
C591        C  0.95691473  0.63175100  0.30456296     0.16800
C592        C  0.93198952  0.61809491  0.31513336     0.26200
C593        C  0.90735841  0.61609469  0.29627148    -0.40100
C594        C  0.90758281  0.63012002  0.26761828     0.33300
C595        C  0.98542510  0.65205243  0.26109172     0.01900
F596        F  0.98090611  0.63176782  0.32240098    -0.12400
F597        F  0.88426966  0.62919428  0.24882840    -0.13000
C598        C  0.99018073  0.67991357  0.24957159     0.16800
C599        C  0.01465431  0.68578513  0.23182336     0.26200
C600        C  0.03458022  0.66371205  0.22522938    -0.40100
C601        C  0.03046684  0.63634053  0.23851947     0.33200
C602        C  0.00614983  0.63061016  0.25612502     0.14900
F603        F  0.97069723  0.70113867  0.25480357    -0.12400
F604        F  0.04938886  0.61455667  0.23354018    -0.12900
F605        F  0.01809711  0.71265006  0.22008387    -0.15200
F606        F  0.00193680  0.60342664  0.26673044    -0.13800
F607        F  0.93284510  0.65512507  0.22849562    -0.13800
F608        F  0.93264210  0.60546551  0.34317191    -0.15200
C609        C  0.88834929  0.37935152  0.23239934     0.14900
C610        C  0.88513581  0.40413710  0.21440360     0.01800
C611        C  0.89364698  0.40365083  0.18363942     0.16800
C612        C  0.90667178  0.37902906  0.17139322     0.26200
C613        C  0.91141560  0.35452049  0.18988484    -0.40100
C614        C  0.90123925  0.35469170  0.22028520     0.33300
C615        C  0.87665986  0.43139309  0.22911083     0.01900
F616        F  0.89066942  0.42752191  0.16594541    -0.17200
F617        F  0.90516438  0.33162851  0.23894771    -0.13000
C618        C  0.89751739  0.44725683  0.24503615     0.16800
C619        C  0.88981358  0.47190715  0.26131536     0.26200
C620        C  0.86087168  0.48116337  0.26213398    -0.40100
C621        C  0.84004729  0.46547052  0.24542438     0.33200
C622        C  0.84796196  0.44076265  0.22899318     0.14900
F623        F  0.92541213  0.43845001  0.24526882    -0.12400
F624        F  0.81198217  0.47364806  0.24537071    -0.12900
F625        F  0.91077096  0.48631399  0.27673153    -0.15200
F626        F  0.82756705  0.42560921  0.21355010    -0.13800
F627        F  0.88030017  0.37959594  0.26227389    -0.13800
F628        F  0.91561210  0.37966790  0.14181570    -0.15200
C629        C  0.69660802  0.92415387  0.20255864     0.14900
C630        C  0.69751440  0.92520816  0.23474430     0.01800
C631        C  0.70961855  0.94953486  0.24912167     0.16800
C632        C  0.71910240  0.97301235  0.23166827     0.26200
C633        C  0.71693457  0.97235857  0.19953320    -0.40100
C634        C  0.70648421  0.94733321  0.18517673     0.33300
C635        C  0.68387642  0.90186139  0.25293387     0.01900
F636        F  0.71159710  0.95086162  0.28011330    -0.12400
F637        F  0.70507516  0.94556670  0.15416570    -0.13000
C638        C  0.69045533  0.87283365  0.24701499     0.16800
C639        C  0.67470507  0.85078173  0.26095287     0.26200
C640        C  0.65244706  0.85727693  0.28173056    -0.40100
C641        C  0.64704835  0.88631849  0.28903110     0.33200
C642        C  0.66233764  0.90837000  0.27447900     0.14900
F643        F  0.71184356  0.86579422  0.22721641    -0.12400
F644        F  0.62597553  0.89355724  0.30911461    -0.12900
F645        F  0.68103070  0.82306672  0.25366011    -0.15200
F646        F  0.65488557  0.93612814  0.28020551    -0.13800
F647        F  0.68464636  0.90132363  0.18781936    -0.13800
F648        F  0.72879111  0.99695449  0.24629104    -0.15200
C649        C  0.43143010  0.81553281  0.18923250     0.14900
C650        C  0.45982615  0.82545661  0.18628402     0.01800
C651        C  0.46625498  0.84659971  0.16435320     0.16800
C652        C  0.44420606  0.85905235  0.14696725     0.26200
C653        C  0.41536112  0.85065733  0.15151485    -0.40100
C654        C  0.40935021  0.82795531  0.17196232     0.33300
C655        C  0.48196028  0.81618894  0.20846161     0.01900
F656        F  0.49359294  0.85659599  0.16129594    -0.12400
F657        F  0.38198303  0.81835344  0.17600287    -0.13000
C658        C  0.50631008  0.80072601  0.19898328     0.16800
C659        C  0.52764613  0.79315438  0.22020742     0.26200
C660        C  0.52506720  0.80138070  0.25115525    -0.40100
C661        C  0.50035298  0.81654814  0.26054014     0.33200
C662        C  0.47903825  0.82384669  0.23937821     0.14900
F663        F  0.50948666  0.79319288  0.16914587    -0.12400
F664        F  0.49681612  0.82454705  0.29020583    -0.12900
F665        F  0.55124643  0.77871202  0.21023021    -0.15200
F666        F  0.45587368  0.83927388  0.24889147    -0.13800
F667        F  0.42498054  0.79453800  0.20977173    -0.13800
F668        F  0.45091563  0.88067460  0.12728809    -0.15200
C669        C  0.52637298  0.76740946  0.44489911     0.14900
C670        C  0.53552533  0.78746895  0.46691093     0.01800
C671        C  0.55584782  0.80850309  0.45873900     0.16800
C672        C  0.56722247  0.80920590  0.42911173     0.26200
C673        C  0.55856460  0.78871445  0.40706997    -0.40100
C674        C  0.53771390  0.76799810  0.41527845     0.33300
C675        C  0.52369476  0.78646253  0.49833025     0.01900
F676        F  0.56511146  0.82806532  0.47968133    -0.12400
F677        F  0.52810074  0.74828836  0.39468637    -0.13000
C678        C  0.52707912  0.76165195  0.51639179     0.16800
C679        C  0.51509251  0.76027956  0.54570438     0.26200
C680        C  0.49951701  0.78381122  0.55756116    -0.40100
C681        C  0.49656594  0.80883138  0.53949217     0.33200
C682        C  0.50850954  0.81008117  0.51017164     0.14900
F683        F  0.54215941  0.73874324  0.50564239    -0.12400
F684        F  0.48202870  0.83216369  0.55004758    -0.12900
F685        F  0.51839335  0.73569456  0.56218648    -0.15200
F686        F  0.50462691  0.83416024  0.49299694    -0.13800
F687        F  0.50606968  0.74743624  0.45201784    -0.13800
F688        F  0.58683774  0.82990044  0.42218575    -0.15200
C689        C  0.66494700  0.66511500  0.30134096     0.14900
C690        C  0.69148613  0.66752087  0.31660509     0.01800
C691        C  0.69818372  0.69311086  0.33217548     0.16800
C692        C  0.67866332  0.71591065  0.33274384     0.26200
C693        C  0.65194712  0.71371823  0.31751821    -0.40100
C694        C  0.64530964  0.68802217  0.30174322     0.33300
C695        C  0.71271678  0.64379250  0.31615371     0.01900
F696        F  0.72410434  0.69631453  0.34625412    -0.12400
F697        F  0.61986869  0.68496599  0.28670809    -0.13000
C698        C  0.72501739  0.63465920  0.28844857     0.16800
C699        C  0.74799566  0.61515034  0.28853866     0.26200
C700        C  0.75919111  0.60470663  0.31641657    -0.40100
C701        C  0.74569834  0.61271136  0.34400654     0.33200
C702        C  0.72265641  0.63200876  0.34382103     0.14900
F703        F  0.71588853  0.64590255  0.26142110    -0.12400
F704        F  0.75507709  0.60227864  0.37131304    -0.12900
F705        F  0.76022360  0.60776032  0.26144622    -0.15200
F706        F  0.71044688  0.63982180  0.37080627    -0.13800
F707        F  0.65795684  0.64047437  0.28630979    -0.13800
F708        F  0.68636617  0.74038357  0.34770095    -0.15200
C709        C  0.47089769  0.16841598  0.73011953     0.14900
C710        C  0.46751783  0.14109922  0.74344867     0.01800
C711        C  0.49078219  0.12178911  0.74354276     0.16800
C712        C  0.51672344  0.12924112  0.72959489     0.26200
C713        C  0.51970272  0.15601861  0.71471839    -0.40100
C714        C  0.49673610  0.17580907  0.71576766     0.33300
C715        C  0.43906987  0.13138750  0.75442268     0.01900
F716        F  0.48783722  0.09494202  0.75553093    -0.12400
F717        F  0.49865985  0.20180299  0.70165344    -0.13000
C718        C  0.41566022  0.13050165  0.73405687     0.16800
C719        C  0.39011762  0.11683065  0.74243370     0.26200
C720        C  0.38770078  0.10332670  0.77123126    -0.40100
C721        C  0.41043538  0.10615996  0.79244217     0.33200
C722        C  0.43592679  0.12006896  0.78404989     0.14900
F723        F  0.41816432  0.14112998  0.70520216    -0.12400
F724        F  0.40864839  0.09435257  0.82082524    -0.12900
F725        F  0.36828683  0.11574762  0.72172943    -0.15200
F726        F  0.45801331  0.12151125  0.80442181    -0.13800
F727        F  0.44881218  0.18756964  0.73015116    -0.13800
F728        F  0.53852423  0.10975465  0.72977472    -0.15200
C729        C  0.67956748  0.08368391  0.72910249     0.14900
C730        C  0.68851629  0.06163437  0.70918492     0.01800
C731        C  0.68344639  0.06459631  0.67760851     0.16800
C732        C  0.66758953  0.08791167  0.66643336     0.26200
C733        C  0.65706658  0.10909096  0.68658747    -0.40100
C734        C  0.66424596  0.10733597  0.71788372     0.33300
C735        C  0.69955548  0.03413264  0.72183035     0.01900
F736        F  0.69291858  0.04426807  0.65767951    -0.12400
F737        F  0.65480086  0.12743986  0.73808918    -0.13000
C738        C  0.68522028  0.00822473  0.71490316     0.16800
C739        C  0.69234134  0.98284138  0.73022345     0.26200
C740        C  0.71359252  0.98290881  0.75322800    -0.40100
C741        C  0.72908227  0.00846410  0.75895431     0.33200
C742        C  0.72222519  0.03381183  0.74322121     0.14900
F743        F  0.66293713  0.00779465  0.69471378    -0.12400
F744        F  0.74965448  0.00945154  0.78107196    -0.12900
F745        F  0.67759828  0.95841428  0.72327822    -0.15200
F746        F  0.73704386  0.05830591  0.74968583    -0.13800
F747        F  0.68376048  0.08135401  0.75978866    -0.13800
F748        F  0.66177973  0.08920394  0.63598325    -0.15200
C749        C  0.54687887  0.13359904  0.51881773     0.14900
C750        C  0.52831967  0.15509143  0.50784445     0.01800
C751        C  0.52200956  0.17890548  0.52632421     0.16800
C752        C  0.53419852  0.18141430  0.55545679     0.26200
C753        C  0.55325484  0.16017221  0.56656932    -0.40100
C754        C  0.55931785  0.13608483  0.54794984     0.33300
C755        C  0.51640363  0.15354162  0.47657421     0.01900
F756        F  0.50419050  0.19994047  0.51592972    -0.12400
F757        F  0.57731599  0.11496317  0.55778868    -0.13000
C758        C  0.49168549  0.13715526  0.47038478     0.16800
C759        C  0.47973412  0.13686025  0.44089108     0.26200
C760        C  0.49249162  0.15292810  0.41707216    -0.40100
C761        C  0.51733109  0.16943009  0.42365060     0.33200
C762        C  0.52909000  0.16968751  0.45310978     0.14900
F763        F  0.47884902  0.12188537  0.49309917    -0.12400
F764        F  0.53032764  0.18552114  0.40168009    -0.12900
F765        F  0.45547705  0.12120746  0.43586472    -0.15200
F766        F  0.55288622  0.18586503  0.45884551    -0.13800
F767        F  0.55336153  0.11050682  0.50104893    -0.13800
F768        F  0.52768048  0.20498946  0.57247277    -0.15200
C769        C  0.94652575  0.33352989  0.68207438     0.14900
C770        C  0.94469637  0.32453197  0.71268471     0.01800
C771        C  0.91865328  0.32773620  0.72850524     0.16800
C772        C  0.89519694  0.34130373  0.71451553     0.26200
C773        C  0.89738878  0.35190607  0.68430602    -0.40100
C774        C  0.92309725  0.34705023  0.66793746     0.33300
C775        C  0.97092167  0.31595077  0.72952136     0.01900
F776        F  0.91659399  0.31951617  0.75827094    -0.12400
F777        F  0.92623729  0.35670695  0.63879230    -0.13000
C778        C  0.99266891  0.33644425  0.73427513     0.16800
C779        C  0.01641933  0.32997444  0.75254094     0.26200
C780        C  0.01906461  0.30266862  0.76635963    -0.40100
C781        C  0.99749040  0.28183350  0.76100351     0.33200
C782        C  0.97351444  0.28852645  0.74281342     0.14900
F783        F  0.99036010  0.36325345  0.72206647    -0.12400
F784        F  0.99921101  0.25523406  0.77381906    -0.12900
F785        F  0.03662231  0.35074557  0.75693023    -0.15200
F786        F  0.95274582  0.26834991  0.73831625    -0.13800
F787        F  0.97152475  0.33035788  0.66633638    -0.13800
F788        F  0.87084270  0.34519063  0.73116156    -0.15200
C789        C  0.87154259  0.55240345  0.79699448     0.14900
C790        C  0.86389433  0.55469100  0.76596755     0.01800
C791        C  0.86810917  0.58089487  0.75062881     0.16800
C792        C  0.88158892  0.60390026  0.76543892     0.26200
C793        C  0.89118336  0.60107309  0.79595566    -0.40100
C794        C  0.88505201  0.57538693  0.81192565     0.33300
C795        C  0.85570363  0.52880451  0.74834501     0.01900
F796        F  0.86117094  0.58350157  0.72053289    -0.12400
F797        F  0.89335821  0.57185901  0.84151640    -0.13000
C798        C  0.82974957  0.52765500  0.73177571     0.16800
C799        C  0.82391825  0.50425377  0.71249329     0.26200
C800        C  0.84412582  0.48183601  0.70939926    -0.40100
C801        C  0.86985381  0.48292471  0.72644186     0.33200
C802        C  0.87551424  0.50612024  0.74576153     0.14900
F803        F  0.81032610  0.54941025  0.73392158    -0.12400
F804        F  0.88973785  0.46157729  0.72432928    -0.12900
F805        F  0.79911993  0.50413432  0.69595860    -0.15200
F806        F  0.90102630  0.50702882  0.76100722    -0.13800
F807        F  0.86713994  0.52736801  0.81239711    -0.13800
F808        F  0.88667597  0.62831262  0.74919444    -0.15200
C809        C  0.81529657  0.48577386  0.44853892     0.14900
C810        C  0.83640842  0.49309439  0.47032845     0.01800
C811        C  0.85794357  0.51302189  0.46231977     0.16800
C812        C  0.85869938  0.52493585  0.43290752     0.26200
C813        C  0.83757206  0.51757458  0.41102511    -0.40100
C814        C  0.81570761  0.49803355  0.41932930     0.33300
C815        C  0.83615118  0.47945726  0.50108601     0.01900
F816        F  0.87812342  0.52124584  0.48311011    -0.12400
F817        F  0.79457078  0.49071224  0.39925181    -0.13000
C818        C  0.86071719  0.46519663  0.51233065     0.16800
C819        C  0.86006796  0.45127978  0.54074195     0.26200
C820        C  0.83466843  0.45100090  0.55835086    -0.40100
C821        C  0.81012440  0.46540480  0.54704041     0.33200
C822        C  0.81099676  0.47974399  0.51893820     0.14900
F823        F  0.88523005  0.46412274  0.49546257    -0.12400
F824        F  0.78504860  0.46551632  0.56299440    -0.12900
F825        F  0.88436108  0.43807488  0.55089103    -0.15200
F826        F  0.78721529  0.49416787  0.50927893    -0.13800
F827        F  0.79451002  0.46619561  0.45529883    -0.13800
F828        F  0.88034028  0.54346910  0.42586929    -0.15200
C829        C  0.70579662  0.34423807  0.66458305     0.14900
C830        C  0.70716918  0.31719248  0.65025006     0.01800
C831        C  0.73253829  0.30906019  0.63507330     0.16800
C832        C  0.75612519  0.32761547  0.63407794     0.26200
C833        C  0.75507167  0.35458947  0.64875088    -0.40100
C834        C  0.72958489  0.36278510  0.66394512     0.33300
C835        C  0.68266594  0.29685865  0.65149555     0.01900
F836        F  0.73479003  0.28266981  0.62186925    -0.12400
F837        F  0.72748867  0.38884599  0.67786934    -0.13000
C838        C  0.67147230  0.28520844  0.62428498     0.16800
C839        C  0.65163765  0.26265238  0.62527796     0.26200
C840        C  0.64242499  0.25146430  0.65357000    -0.40100
C841        C  0.65205773  0.26455513  0.68082767     0.33200
C842        C  0.67217626  0.28697356  0.67977896     0.14900
F843        F  0.68047211  0.29513900  0.59665665    -0.12400
F844        F  0.64341146  0.25457399  0.70855798    -0.12900
F845        F  0.64195105  0.25136974  0.59847870    -0.15200
F846        F  0.68274610  0.29775587  0.70643182    -0.13800
F847        F  0.68131666  0.35279875  0.67889627    -0.13800
F848        F  0.78026414  0.31873003  0.61934373    -0.15200
loop_ 
_geom_bond_atom_site_label_1 
_geom_bond_atom_site_label_2 
_geom_bond_distance 
_geom_bond_site_symmetry_2 
_ccdc_geom_bond_type 
O1            C4   1.266       .  A
O1           Cd6   2.480       .  S
C2           O11   1.266       .  A
C2            O7   1.268       .  A
C2          C773   1.486       .  S
O3            C9   1.265       .  A
O3           Cd6   2.479       .  S
C4           O12   1.263       .  A
C4          C820   1.484       .  S
C5           O10   1.266       .  A
C5            O8   1.265       .  A
C5          C833   1.480       .  S
Cd6          O13   2.427       .  S
Cd6          O12   2.444       .  S
Cd6          O11   2.450       .  S
Cd6           O7   2.471       .  S
Cd6          O10   2.465       .  S
Cd6           O8   2.437       .  S
C9           O13   1.263       .  A
C9          C800   1.476       .  S
O14          C17   1.266       .  A
O14         Cd19   2.445       .  S
C15          O24   1.265       .  A
C15          O20   1.266       .  A
C15         C753   1.484       .  S
O16          C22   1.265       .  A
O16         Cd19   2.463       .  S
C17          O25   1.266       .  A
C17         C733   1.479       .  S
C18          O23   1.265       .  A
C18          O21   1.264       .  A
C18         C840   1.477       .  S
Cd19         O26   2.435       .  S
Cd19         O25   2.453       .  S
Cd19         O24   2.445       .  S
Cd19         O20   2.473       .  S
Cd19         O23   2.466       .  S
Cd19         O21   2.436       .  S
C22          O26   1.262       .  A
C22         C713   1.478       .  S
O27          C30   1.266       .  A
O27         Cd32   2.460       .  S
C28          O37   1.263       .  A
C28          O33   1.265       .  A
C28         C640   1.483       .  S
O29          C35   1.267       .  A
O29         Cd32   2.475       .  S
C30          O38   1.266       .  A
C30         C673   1.486       .  S
C31          O36   1.265       .  A
C31          O34   1.263       .  A
C31         C660   1.479       .  S
Cd32         O39   2.432       .  S
Cd32         O38   2.459       .  S
Cd32         O37   2.452       .  S
Cd32         O33   2.477       .  S
Cd32         O36   2.479       .  S
Cd32         O34   2.439       .  S
C35          O39   1.265       .  A
C35         C693   1.483       .  S
O40          C43   1.266       .  A
O40         Cd45   2.456       .  S
C41          O50   1.265       .  A
C41          O46   1.265       .  A
C41         C593   1.485       .  S
O42          C48   1.266       .  A
O42         Cd45   2.497       .  S
C43          O51   1.266       .  A
C43         C813   1.483       .  S
C44          O49   1.266       .  A
C44          O47   1.263       .  A
C44         C700   1.481       .  S
Cd45         O52   2.437       .  S
Cd45         O51   2.456       .  S
Cd45         O50   2.470       .  S
Cd45         O46   2.456       .  S
Cd45         O49   2.479       .  S
Cd45         O47   2.440       .  S
C48          O52   1.262       .  A
C48         C620   1.486       .  S
O53          C56   1.265       .  A
O53         Cd58   2.458       .  S
C54          O63   1.268       .  A
C54          O59   1.266       .  A
C54         C680   1.483       .  S
O55          C61   1.263       .  A
O55         Cd58   2.416       .  S
C56          O64   1.264       .  A
C56         C533   1.482       .  S
C57          O62   1.266       .  A
C57          O60   1.263       .  A
C57         C580   1.476       .  S
Cd58         O65   2.496       .  S
Cd58         O64   2.453       .  S
Cd58         O63   2.459       .  S
Cd58         O59   2.441       .  S
Cd58         O62   2.463       .  S
Cd58         O60   2.446       .  S
C61          O65   1.268       .  A
C61         C553   1.482       .  S
O66          C69   1.268       .  A
O66         Cd71   2.478       .  S
C67          O76   1.267       .  A
C67          O72   1.264       .  A
C67         C493   1.487       .  S
O68          C74   1.265       .  A
O68         Cd71   2.488       .  S
C69          O77   1.265       .  A
C69         C513   1.483       .  S
C70          O75   1.267       .  A
C70          O73   1.266       .  A
C70         C573   1.483       .  S
Cd71         O78   2.439       .  S
Cd71         O77   2.451       .  S
Cd71         O76   2.488       .  S
Cd71         O72   2.449       .  S
Cd71         O75   2.457       .  S
Cd71         O73   2.442       .  S
C74          O78   1.263       .  A
C74         C480   1.482       .  S
O79          C82   1.266       .  A
O79         Cd84   2.462       .  S
C80          O89   1.267       .  A
C80          O85   1.266       .  A
C80         C520   1.483       .  S
O81          C87   1.265       .  A
O81         Cd84   2.464       .  S
C82          O90   1.263       .  A
C82         C440   1.482       .  S
C83          O88   1.268       .  A
C83          O86   1.262       .  A
C83         C420   1.485       .  S
Cd84         O91   2.448       .  S
Cd84         O90   2.451       .  S
Cd84         O89   2.453       .  S
Cd84         O85   2.446       .  S
Cd84         O88   2.509       .  S
Cd84         O86   2.412       .  S
C87          O91   1.263       .  A
C87         C453   1.478       .  S
O92          C95   1.269       .  A
O92         Cd97   2.480       .  S
C93         O102   1.263       .  A
C93          O98   1.269       .  A
C93         C760   1.487       .  S
O94         C100   1.265       .  A
O94         Cd97   2.420       .  S
C95         O103   1.265       .  A
C95         C393   1.486       .  S
C96         O101   1.266       .  A
C96          O99   1.266       .  A
C96         C460   1.479       .  S
Cd97        O104   2.457       .  S
Cd97        O103   2.445       .  S
Cd97        O102   2.433       .  S
Cd97         O98   2.496       .  S
Cd97        O101   2.451       .  S
Cd97         O99   2.436       .  S
C100        O104   1.267       .  A
C100        C373   1.468       .  S
O105        C108   1.266       .  A
O105       Cd110   2.473       .  S
C106        O115   1.264       .  A
C106        O111   1.267       .  A
C106        C333   1.483       .  S
O107        C113   1.263       .  A
O107       Cd110   2.448       .  S
C108        O116   1.266       .  A
C108        C560   1.486       .  S
C109        O114   1.264       .  A
C109        O112   1.264       .  A
C109        C740   1.478       .  S
Cd110       O117   2.480       .  S
Cd110       O116   2.455       .  S
Cd110       O115   2.442       .  S
Cd110       O111   2.467       .  S
Cd110       O114   2.470       .  S
Cd110       O112   2.445       .  S
C113        O117   1.265       .  A
C113        C353   1.482       .  S
O118        C121   1.266       .  A
O118       Cd123   2.462       .  S
C119        O128   1.265       .  A
C119        O124   1.265       .  A
C119        C313   1.481       .  S
O120        C126   1.268       .  A
O120       Cd123   2.494       .  S
C121        O129   1.265       .  A
C121        C793   1.482       .  S
C122        O127   1.266       .  A
C122        O125   1.264       .  A
C122        C360   1.486       .  S
Cd123       O130   2.443       .  S
Cd123       O129   2.441       .  S
Cd123       O128   2.447       .  S
Cd123       O124   2.472       .  S
Cd123       O127   2.481       .  S
Cd123       O125   2.456       .  S
C126        O130   1.264       .  A
C126        C500   1.486   1_655  S
O131        C134   1.266       .  A
O131       Cd136   2.470       .  S
C132        O141   1.267       .  A
C132        O137   1.267       .  A
C132        C340   1.481       .  S
O133        C139   1.266       .  A
O133       Cd136   2.464       .  S
C134        O142   1.263       .  A
C134        C380   1.482       .  S
C135        O140   1.266   1_565  A
C135        O138   1.262   1_565  A
C135        C633   1.477       .  S
Cd136       O143   2.452       .  S
Cd136       O142   2.447       .  S
Cd136       O141   2.454       .  S
Cd136       O137   2.463       .  S
Cd136       O140   2.491       .  S
Cd136       O138   2.426       .  S
C139        O143   1.265       .  A
C139        C293   1.485       .  S
O144        C147   1.265       .  A
O144       Cd149   2.459       .  S
C145        O154   1.266   1_655  A
C145        O150   1.265       .  A
C145        C273   1.480   1_655  S
O146        C152   1.266       .  A
O146       Cd149   2.497   1_455  S
C147        O155   1.266       .  A
C147        C613   1.484       .  S
C148        O153   1.266       .  A
C148        O151   1.263       .  A
C148        C300   1.481       .  S
Cd149       O156   2.431   1_655  S
Cd149       O155   2.461       .  S
Cd149       O154   2.447   1_655  S
Cd149       O150   2.448       .  S
Cd149       O153   2.479       .  S
Cd149       O151   2.446       .  S
C152        O156   1.263       .  A
C152        C433   1.480       .  S
O157        C160   1.265       .  A
O157       Cd162   2.432       .  S
C158        O167   1.264       .  A
C158        O163   1.266       .  A
C158        C720   1.479       .  S
O159        C165   1.265   1_545  A
O159       Cd162   2.477       .  S
C160        O168   1.267       .  A
C160        C233   1.479       .  S
C161        O166   1.260       .  A
C161        O164   1.263       .  A
C161        C260   1.469       .  S
Cd162       O169   2.424       .  S
Cd162       O168   2.466       .  S
Cd162       O167   2.429       .  S
Cd162       O163   2.461       .  S
Cd162       O166   2.447       .  S
Cd162       O164   2.462       .  S
C165        O169   1.263   1_565  A
C165        C540   1.478       .  S
O170        C173   1.264       .  A
O170       Cd175   2.454       .  S
C171        O180   1.264       .  A
C171        O176   1.265       .  A
C171        C280   1.479       .  S
O172        C178   1.266       .  A
O172       Cd175   2.475       .  S
C173        O181   1.265       .  A
C173        C473   1.481       .  S
C174        O179   1.264       .  A
C174        O177   1.266       .  A
C174        C253   1.479       .  S
Cd175       O182   2.423       .  S
Cd175       O181   2.460       .  S
Cd175       O180   2.440       .  S
Cd175       O176   2.460       .  S
Cd175       O179   2.443       .  S
Cd175       O177   2.453       .  S
C178        O182   1.264       .  A
C178        C780   1.480       .  S
O183        C186   1.266       .  A
O183       Cd188   2.459       .  S
C184        O193   1.265       .  A
C184        O189   1.265       .  A
C184        C320   1.480       .  S
O185        C191   1.266       .  A
O185       Cd188   2.507       .  S
C186        O194   1.266       .  A
C186        C413   1.485       .  S
C187        O192   1.267       .  A
C187        O190   1.264       .  A
C187        C213   1.477       .  S
Cd188       O195   2.421       .  S
Cd188       O194   2.465       .  S
Cd188       O193   2.453       .  S
Cd188       O189   2.457       .  S
Cd188       O192   2.458       .  S
Cd188       O190   2.433       .  S
C191        O195   1.262       .  A
C191        C600   1.484       .  S
O196        C199   1.266       .  A
O196       Cd201   2.471       .  S
C197        O206   1.263       .  A
C197        O202   1.265       .  A
C197        C653   1.479       .  S
O198        C204   1.266       .  A
O198       Cd201   2.486       .  S
C199        O207   1.265       .  A
C199        C240   1.482       .  S
C200        O205   1.266       .  A
C200        O203   1.266       .  A
C200        C220   1.479       .  S
Cd201       O208   2.438       .  S
Cd201       O207   2.445       .  S
Cd201       O206   2.446       .  S
Cd201       O202   2.475       .  S
Cd201       O205   2.436       .  S
Cd201       O203   2.452       .  S
C204        O208   1.264       .  A
C204        C400   1.483       .  S
C209        C210   1.405       .  A
C209        C214   1.397       .  A
C209        F227   1.358       .  S
C210        C215   1.478       .  S
C210        C211   1.405       .  A
C211        C212   1.396       .  A
C211        F216   1.358       .  S
C212        C213   1.409       .  A
C212        F228   1.358       .  S
C213        C214   1.407       .  A
C214        F217   1.358       .  S
C215        C218   1.405       .  A
C215        C222   1.405       .  A
C218        C219   1.395       .  A
C218        F223   1.358       .  S
C219        C220   1.409       .  A
C219        F225   1.358       .  S
C220        C221   1.409       .  A
C221        C222   1.398       .  A
C221        F224   1.358       .  S
C222        F226   1.358       .  S
C229        C230   1.405   1_545  A
C229        C234   1.399       .  A
C229        F247   1.358       .  S
C230        C235   1.477       .  S
C230        C231   1.402       .  A
C231        C232   1.396       .  A
C231        F236   1.358       .  S
C232        C233   1.409   1_565  A
C232        F248   1.358       .  S
C233        C234   1.409       .  A
C234        F237   1.358       .  S
C235        C238   1.402       .  A
C235        C242   1.404       .  A
C238        C239   1.396   1_556  A
C238        F243   1.358   1_565  S
C239        C240   1.410       .  A
C239        F245   1.358       .  S
C240        C241   1.410   1_554  A
C241        C242   1.400       .  A
C241        F244   1.358   1_556  S
C242        F246   1.358       .  S
C249        C250   1.401       .  A
C249        C254   1.394       .  A
C249        F267   1.358       .  S
C250        C255   1.468       .  S
C250        C251   1.400       .  A
C251        C252   1.397       .  A
C251        F256   1.358       .  S
C252        C253   1.412       .  A
C252        F268   1.358       .  S
C253        C254   1.409       .  A
C254        F257   1.358       .  S
C255        C258   1.402       .  A
C255        C262   1.402       .  A
C258        C259   1.396       .  A
C258        F263   1.357       .  S
C259        C260   1.405       .  A
C259        F265   1.358       .  S
C260        C261   1.407       .  A
C261        C262   1.395       .  A
C261        F264   1.359       .  S
C262        F266   1.358       .  S
C269        C270   1.402       .  A
C269        C274   1.397   1_455  A
C269        F287   1.358       .  S
C270        C275   1.472   1_554  S
C270        C271   1.402       .  A
C271        C272   1.395       .  A
C271        F276   1.358       .  S
C272        C273   1.410       .  A
C272        F288   1.358       .  S
C273        C274   1.411   1_455  A
C274        F277   1.358       .  S
C275        C278   1.402       .  A
C275        C282   1.402       .  A
C278        C279   1.397       .  A
C278        F283   1.358       .  S
C279        C280   1.410       .  A
C279        F285   1.358       .  S
C280        C281   1.410       .  A
C281        C282   1.395       .  A
C281        F284   1.358       .  S
C282        F286   1.358   1_455  S
C289        C290   1.403       .  A
C289        C294   1.400       .  A
C289        F307   1.358       .  S
C290        C295   1.479       .  S
C290        C291   1.404       .  A
C291        C292   1.396       .  A
C291        F296   1.358       .  S
C292        C293   1.410       .  A
C292        F308   1.358       .  S
C293        C294   1.411       .  A
C294        F297   1.358       .  S
C295        C298   1.404       .  A
C295        C302   1.405       .  A
C298        C299   1.397       .  A
C298        F303   1.358       .  S
C299        C300   1.410       .  A
C299        F305   1.358       .  S
C300        C301   1.408       .  A
C301        C302   1.399       .  A
C301        F304   1.358       .  S
C302        F306   1.358       .  S
C309        C310   1.402       .  A
C309        C314   1.395       .  A
C309        F327   1.358       .  S
C310        C315   1.474   1_556  S
C310        C311   1.403   1_455  A
C311        C312   1.400       .  A
C311        F316   1.358   1_556  S
C312        C313   1.411       .  A
C312        F328   1.358       .  S
C313        C314   1.409   1_655  A
C314        F317   1.358       .  S
C315        C318   1.403       .  A
C315        C322   1.402       .  A
C318        C319   1.396       .  A
C318        F323   1.358       .  S
C319        C320   1.409       .  A
C319        F325   1.358       .  S
C320        C321   1.410       .  A
C321        C322   1.399       .  A
C321        F324   1.358       .  S
C322        F326   1.358       .  S
C329        C330   1.404       .  A
C329        C334   1.399       .  A
C329        F347   1.358       .  S
C330        C335   1.479       .  S
C330        C331   1.403       .  A
C331        C332   1.397       .  A
C331        F336   1.358   1_565  S
C332        C333   1.411       .  A
C332        F348   1.358       .  S
C333        C334   1.410       .  A
C334        F337   1.358       .  S
C335        C338   1.404   1_556  A
C335        C342   1.404   1_556  A
C338        C339   1.397   1_565  A
C338        F343   1.358   1_554  S
C339        C340   1.408       .  A
C339        F345   1.358       .  S
C340        C341   1.410       .  A
C341        C342   1.400   1_545  A
C341        F344   1.358       .  S
C342        F346   1.358       .  S
C349        C350   1.405       .  A
C349        C354   1.400       .  A
C349        F367   1.358       .  S
C350        C355   1.479       .  S
C350        C351   1.403       .  A
C351        C352   1.397       .  A
C351        F356   1.358       .  S
C352        C353   1.409       .  A
C352        F368   1.358       .  S
C353        C354   1.410       .  A
C354        F357   1.358       .  S
C355        C358   1.403       .  A
C355        C362   1.404       .  A
C358        C359   1.401       .  A
C358        F363   1.358       .  S
C359        C360   1.411       .  A
C359        F365   1.357       .  S
C360        C361   1.411       .  A
C361        C362   1.397       .  A
C361        F364   1.358       .  S
C362        F366   1.359       .  S
C369        C370   1.405       .  A
C369        C374   1.393       .  A
C369        F387   1.358       .  S
C370        C375   1.476       .  S
C370        C371   1.405       .  A
C371        C372   1.399       .  A
C371        F376   1.358       .  S
C372        C373   1.405       .  A
C372        F388   1.358       .  S
C373        C374   1.404       .  A
C374        F377   1.358       .  S
C375        C378   1.403       .  A
C375        C382   1.403       .  A
C378        C379   1.397       .  A
C378        F383   1.358       .  S
C379        C380   1.409       .  A
C379        F385   1.357       .  S
C380        C381   1.411       .  A
C381        C382   1.397       .  A
C381        F384   1.358       .  S
C382        F386   1.358       .  S
C389        C390   1.405       .  A
C389        C394   1.399       .  A
C389        F407   1.358       .  S
C390        C395   1.485       .  S
C390        C391   1.406       .  A
C391        C392   1.400       .  A
C391        F396   1.358       .  S
C392        C393   1.409       .  A
C392        F408   1.357       .  S
C393        C394   1.411       .  A
C394        F397   1.358       .  S
C395        C398   1.405       .  A
C395        C402   1.407       .  A
C398        C399   1.396       .  A
C398        F403   1.358       .  S
C399        C400   1.409   1_545  A
C399        F405   1.358   1_545  S
C400        C401   1.409       .  A
C401        C402   1.401   1_565  A
C401        F404   1.358       .  S
C402        F406   1.358       .  S
C409        C410   1.403       .  A
C409        C414   1.397       .  A
C409        F427   1.358       .  S
C410        C415   1.478       .  S
C410        C411   1.403       .  A
C411        C412   1.401       .  A
C411        F416   1.358       .  S
C412        C413   1.411       .  A
C412        F428   1.358       .  S
C413        C414   1.410       .  A
C414        F417   1.358       .  S
C415        C418   1.405       .  A
C415        C422   1.401       .  A
C418        C419   1.405       .  A
C418        F423   1.358       .  S
C419        C420   1.412       .  A
C419        F425   1.358       .  S
C420        C421   1.411       .  A
C421        C422   1.392       .  A
C421        F424   1.358       .  S
C422        F426   1.359       .  S
C429        C430   1.406       .  A
C429        C434   1.402       .  A
C429        F447   1.358       .  S
C430        C435   1.479       .  S
C430        C431   1.404       .  A
C431        C432   1.394       .  A
C431        F436   1.358       .  S
C432        C433   1.408       .  A
C432        F448   1.358       .  S
C433        C434   1.409       .  A
C434        F437   1.358       .  S
C435        C438   1.404       .  A
C435        C442   1.405       .  A
C438        C439   1.397       .  A
C438        F443   1.358       .  S
C439        C440   1.411       .  A
C439        F445   1.358       .  S
C440        C441   1.409       .  A
C441        C442   1.398       .  A
C441        F444   1.358       .  S
C442        F446   1.358       .  S
C449        C450   1.404       .  A
C449        C454   1.397       .  A
C449        F467   1.358       .  S
C450        C455   1.477       .  S
C450        C451   1.404       .  A
C451        C452   1.397       .  A
C451        F456   1.358       .  S
C452        C453   1.408       .  A
C452        F468   1.358       .  S
C453        C454   1.409       .  A
C454        F457   1.358       .  S
C455        C458   1.404       .  A
C455        C462   1.404       .  A
C458        C459   1.397       .  A
C458        F463   1.358       .  S
C459        C460   1.410       .  A
C459        F465   1.358       .  S
C460        C461   1.409       .  A
C461        C462   1.395       .  A
C461        F464   1.358       .  S
C462        F466   1.358       .  S
C469        C470   1.403       .  A
C469        C474   1.398       .  A
C469        F487   1.358       .  S
C470        C475   1.475       .  S
C470        C471   1.403       .  A
C471        C472   1.397       .  A
C471        F476   1.358       .  S
C472        C473   1.410       .  A
C472        F488   1.358       .  S
C473        C474   1.410       .  A
C474        F477   1.358       .  S
C475        C478   1.402       .  A
C475        C482   1.403       .  A
C478        C479   1.395       .  A
C478        F483   1.358       .  S
C479        C480   1.410       .  A
C479        F485   1.358       .  S
C480        C481   1.411       .  A
C481        C482   1.401       .  A
C481        F484   1.358       .  S
C482        F486   1.358       .  S
C489        C490   1.402       .  A
C489        C494   1.399       .  A
C489        F507   1.358       .  S
C490        C495   1.480       .  S
C490        C491   1.404       .  A
C491        C492   1.401       .  A
C491        F496   1.358       .  S
C492        C493   1.410       .  A
C492        F508   1.358       .  S
C493        C494   1.412       .  A
C494        F497   1.358       .  S
C495        C498   1.404       .  A
C495        C502   1.402       .  A
C498        C499   1.402       .  A
C498        F503   1.358       .  S
C499        C500   1.410       .  A
C499        F505   1.357       .  S
C500        C501   1.411       .  A
C501        C502   1.398       .  A
C501        F504   1.358       .  S
C502        F506   1.358       .  S
C509        C510   1.403       .  A
C509        C514   1.398       .  A
C509        F527   1.358       .  S
C510        C515   1.480       .  S
C510        C511   1.404       .  A
C511        C512   1.400       .  A
C511        F516   1.358       .  S
C512        C513   1.409       .  A
C512        F528   1.358       .  S
C513        C514   1.410       .  A
C514        F517   1.358       .  S
C515        C518   1.404       .  A
C515        C522   1.404       .  A
C518        C519   1.398       .  A
C518        F523   1.358       .  S
C519        C520   1.410       .  A
C519        F525   1.358       .  S
C520        C521   1.410       .  A
C521        C522   1.398       .  A
C521        F524   1.358       .  S
C522        F526   1.358       .  S
C529        C530   1.404       .  A
C529        C534   1.397       .  A
C529        F547   1.358       .  S
C530        C535   1.476       .  S
C530        C531   1.402       .  A
C531        C532   1.396       .  A
C531        F536   1.358       .  S
C532        C533   1.410       .  A
C532        F548   1.357       .  S
C533        C534   1.411       .  A
C534        F537   1.358       .  S
C535        C538   1.403       .  A
C535        C542   1.404       .  A
C538        C539   1.393       .  A
C538        F543   1.358       .  S
C539        C540   1.408       .  A
C539        F545   1.358       .  S
C540        C541   1.410       .  A
C541        C542   1.400       .  A
C541        F544   1.358       .  S
C542        F546   1.358       .  S
C549        C550   1.401       .  A
C549        C554   1.394       .  A
C549        F567   1.358       .  S
C550        C555   1.477       .  S
C550        C551   1.405       .  A
C551        C552   1.403       .  A
C551        F556   1.358       .  S
C552        C553   1.410       .  A
C552        F568   1.358       .  S
C553        C554   1.410       .  A
C554        F557   1.358       .  S
C555        C558   1.404       .  A
C555        C562   1.401       .  A
C558        C559   1.400       .  A
C558        F563   1.358       .  S
C559        C560   1.411       .  A
C559        F565   1.358       .  S
C560        C561   1.411       .  A
C561        C562   1.397       .  A
C561        F564   1.358       .  S
C562        F566   1.358       .  S
C569        C570   1.401       .  A
C569        C574   1.396       .  A
C569        F587   1.358       .  S
C570        C575   1.472       .  S
C570        C571   1.401       .  A
C571        C572   1.398       .  A
C571        F576   1.358       .  S
C572        C573   1.411       .  A
C572        F588   1.358       .  S
C573        C574   1.411       .  A
C574        F577   1.358       .  S
C575        C578   1.402       .  A
C575        C582   1.402       .  A
C578        C579   1.396       .  A
C578        F583   1.358       .  S
C579        C580   1.408       .  A
C579        F585   1.358       .  S
C580        C581   1.409       .  A
C581        C582   1.398       .  A
C581        F584   1.358       .  S
C582        F586   1.358       .  S
C589        C590   1.404       .  A
C589        C594   1.398       .  A
C589        F607   1.358       .  S
C590        C595   1.479       .  S
C590        C591   1.403       .  A
C591        C592   1.398       .  A
C591        F596   1.358       .  S
C592        C593   1.411       .  A
C592        F608   1.358       .  S
C593        C594   1.411       .  A
C594        F597   1.358       .  S
C595        C598   1.405       .  A
C595        C602   1.402   1_655  A
C598        C599   1.403   1_655  A
C598        F603   1.358       .  S
C599        C600   1.411       .  A
C599        F605   1.358       .  S
C600        C601   1.410       .  A
C601        C602   1.393       .  A
C601        F604   1.358       .  S
C602        F606   1.358       .  S
C609        C610   1.401       .  A
C609        C614   1.397       .  A
C609        F627   1.358       .  S
C610        C615   1.473       .  S
C610        C611   1.401       .  A
C611        C612   1.400       .  A
C611        F616   1.358       .  S
C612        C613   1.412       .  A
C612        F628   1.358       .  S
C613        C614   1.410       .  A
C614        F617   1.358       .  S
C615        C618   1.400       .  A
C615        C622   1.402       .  A
C618        C619   1.395       .  A
C618        F623   1.358       .  S
C619        C620   1.412       .  A
C619        F625   1.358       .  S
C620        C621   1.412       .  A
C621        C622   1.403       .  A
C621        F624   1.357       .  S
C622        F626   1.358       .  S
C629        C630   1.407       .  A
C629        C634   1.394       .  A
C629        F647   1.358       .  S
C630        C635   1.486       .  S
C630        C631   1.408       .  A
C631        C632   1.401       .  A
C631        F636   1.358       .  S
C632        C633   1.407       .  A
C632        F648   1.358       .  S
C633        C634   1.406       .  A
C634        F637   1.358       .  S
C635        C638   1.406       .  A
C635        C642   1.407       .  A
C638        C639   1.398       .  A
C638        F643   1.358       .  S
C639        C640   1.409       .  A
C639        F645   1.358       .  S
C640        C641   1.408       .  A
C641        C642   1.399       .  A
C641        F644   1.358       .  S
C642        F646   1.358       .  S
C649        C650   1.402       .  A
C649        C654   1.396       .  A
C649        F667   1.358       .  S
C650        C655   1.475       .  S
C650        C651   1.404       .  A
C651        C652   1.399       .  A
C651        F656   1.358       .  S
C652        C653   1.409       .  A
C652        F668   1.358       .  S
C653        C654   1.409       .  A
C654        F657   1.358       .  S
C655        C658   1.403       .  A
C655        C662   1.403       .  A
C658        C659   1.400       .  A
C658        F663   1.358       .  S
C659        C660   1.410       .  A
C659        F665   1.358       .  S
C660        C661   1.408       .  A
C661        C662   1.395       .  A
C661        F664   1.358       .  S
C662        F666   1.358       .  S
C669        C670   1.404       .  A
C669        C674   1.398       .  A
C669        F687   1.358       .  S
C670        C675   1.480       .  S
C670        C671   1.404       .  A
C671        C672   1.399       .  A
C671        F676   1.358       .  S
C672        C673   1.411       .  A
C672        F688   1.358       .  S
C673        C674   1.411       .  A
C674        F677   1.358       .  S
C675        C678   1.405       .  A
C675        C682   1.403       .  A
C678        C679   1.398       .  A
C678        F683   1.358       .  S
C679        C680   1.410       .  A
C679        F685   1.358       .  S
C680        C681   1.411       .  A
C681        C682   1.398       .  A
C681        F684   1.358       .  S
C682        F686   1.358       .  S
C689        C690   1.404       .  A
C689        C694   1.401       .  A
C689        F707   1.358       .  S
C690        C695   1.479       .  S
C690        C691   1.403       .  A
C691        C692   1.394       .  A
C691        F696   1.358       .  S
C692        C693   1.410       .  A
C692        F708   1.358       .  S
C693        C694   1.411       .  A
C694        F697   1.358       .  S
C695        C698   1.405       .  A
C695        C702   1.404       .  A
C698        C699   1.400       .  A
C698        F703   1.358       .  S
C699        C700   1.409       .  A
C699        F705   1.358       .  S
C700        C701   1.409       .  A
C701        C702   1.396       .  A
C701        F704   1.358       .  S
C702        F706   1.358       .  S
C709        C710   1.404       .  A
C709        C714   1.397       .  A
C709        F727   1.358       .  S
C710        C715   1.476       .  S
C710        C711   1.404       .  A
C711        C712   1.394       .  A
C711        F716   1.359       .  S
C712        C713   1.409       .  A
C712        F728   1.358       .  S
C713        C714   1.409       .  A
C714        F717   1.358       .  S
C715        C718   1.404       .  A
C715        C722   1.404       .  A
C718        C719   1.394       .  A
C718        F723   1.358       .  S
C719        C720   1.410       .  A
C719        F725   1.358       .  S
C720        C721   1.409       .  A
C721        C722   1.397       .  A
C721        F724   1.358       .  S
C722        F726   1.358       .  S
C729        C730   1.407       .  A
C729        C734   1.397       .  A
C729        F747   1.358       .  S
C730        C735   1.482       .  S
C730        C731   1.405       .  A
C731        C732   1.397       .  A
C731        F736   1.358       .  S
C732        C733   1.408       .  A
C732        F748   1.358       .  S
C733        C734   1.409       .  A
C734        F737   1.358       .  S
C735        C738   1.407       .  A
C735        C742   1.406       .  A
C738        C739   1.395   1_545  A
C738        F743   1.358       .  S
C739        C740   1.407       .  A
C739        F745   1.358       .  S
C740        C741   1.409   1_565  A
C741        C742   1.399       .  A
C741        F744   1.358       .  S
C742        F746   1.358       .  S
C749        C750   1.402       .  A
C749        C754   1.401       .  A
C749        F767   1.358       .  S
C750        C755   1.474       .  S
C750        C751   1.400       .  A
C751        C752   1.396       .  A
C751        F756   1.358       .  S
C752        C753   1.411       .  A
C752        F768   1.358       .  S
C753        C754   1.412       .  A
C754        F757   1.358       .  S
C755        C758   1.402       .  A
C755        C762   1.400       .  A
C758        C759   1.402       .  A
C758        F763   1.358       .  S
C759        C760   1.411       .  A
C759        F765   1.357       .  S
C760        C761   1.413       .  A
C761        C762   1.397       .  A
C761        F764   1.358       .  S
C762        F766   1.358       .  S
C769        C770   1.403       .  A
C769        C774   1.399       .  A
C769        F787   1.358       .  S
C770        C775   1.476       .  S
C770        C771   1.402       .  A
C771        C772   1.398       .  A
C771        F776   1.358       .  S
C772        C773   1.412       .  A
C772        F788   1.358       .  S
C773        C774   1.411       .  A
C774        F777   1.357       .  S
C775        C778   1.402       .  A
C775        C782   1.404       .  A
C778        C779   1.393   1_655  A
C778        F783   1.358       .  S
C779        C780   1.409       .  A
C779        F785   1.358       .  S
C780        C781   1.411   1_455  A
C781        C782   1.401       .  A
C781        F784   1.358       .  S
C782        F786   1.358       .  S
C789        C790   1.404       .  A
C789        C794   1.398       .  A
C789        F807   1.358       .  S
C790        C795   1.476       .  S
C790        C791   1.402       .  A
C791        C792   1.396       .  A
C791        F796   1.358       .  S
C792        C793   1.411       .  A
C792        F808   1.358       .  S
C793        C794   1.410       .  A
C794        F797   1.358       .  S
C795        C798   1.405       .  A
C795        C802   1.403       .  A
C798        C799   1.401       .  A
C798        F803   1.358       .  S
C799        C800   1.408       .  A
C799        F805   1.358       .  S
C800        C801   1.407       .  A
C801        C802   1.393       .  A
C801        F804   1.358       .  S
C802        F806   1.358       .  S
C809        C810   1.406       .  A
C809        C814   1.397       .  A
C809        F827   1.358       .  S
C810        C815   1.485       .  S
C810        C811   1.406       .  A
C811        C812   1.399       .  A
C811        F816   1.358       .  S
C812        C813   1.410       .  A
C812        F828   1.358       .  S
C813        C814   1.409       .  A
C814        F817   1.358       .  S
C815        C818   1.407       .  A
C815        C822   1.406       .  A
C818        C819   1.399       .  A
C818        F823   1.358       .  S
C819        C820   1.409       .  A
C819        F825   1.358       .  S
C820        C821   1.410       .  A
C821        C822   1.397       .  A
C821        F824   1.358       .  S
C822        F826   1.358       .  S
C829        C830   1.405       .  A
C829        C834   1.400       .  A
C829        F847   1.358       .  S
C830        C835   1.479       .  S
C830        C831   1.405       .  A
C831        C832   1.393       .  A
C831        F836   1.358       .  S
C832        C833   1.408       .  A
C832        F848   1.358       .  S
C833        C834   1.410       .  A
C834        F837   1.358       .  S
C835        C838   1.404       .  A
C835        C842   1.405       .  A
C838        C839   1.395       .  A
C838        F843   1.358       .  S
C839        C840   1.407       .  A
C839        F845   1.358       .  S
C840        C841   1.409       .  A
C841        C842   1.399       .  A
C841        F844   1.358       .  S
C842        F846   1.358       .  S
