geometry optimzed in LAMMPS
_audit_creation_date              2020-12-01 
_audit_creation_method            'lammps2cif' 
_symmetry_space_group_name_H-M    'P1' 
_symmetry_Int_Tables_number       1 
_symmetry_cell_setting            triclinic 
loop_ 
_symmetry_equiv_pos_as_xyz 
  x,y,z 
_cell_length_a                    44.34450675 
_cell_length_b                    44.41040482278284 
_cell_length_c                    44.35620700702183 
_cell_angle_alpha                 89.97998200685687 
_cell_angle_beta                  90.0012025004757 
_cell_angle_gamma                 89.99055991932681 
loop_ 
_atom_site_label 
_atom_site_type_symbol 
_atom_site_fract_x 
_atom_site_fract_y 
_atom_site_fract_z 
_atom_site_charge 
C1          C  0.05633149  0.66844210  0.94622202     0.83200
N2          N  0.04269353  0.68167853  0.92226338    -0.75100
C3          C  0.05344655  0.70801698  0.91098076     0.85600
N4          N  0.07757265  0.72154802  0.92418717    -0.75100
C5          C  0.09138524  0.70822298  0.94809377     0.85700
N6          N  0.08050660  0.68188199  0.95924178    -0.76800
C7          C  0.86930994  0.66935621  0.94622631     0.83200
N8          N  0.84537432  0.68326989  0.95916572    -0.75100
C9          C  0.83522555  0.70994672  0.94815771     0.85600
N10         N  0.84954291  0.72313281  0.92447013    -0.75100
C11         C  0.87345295  0.70912519  0.91134844     0.85700
N12         N  0.88346768  0.68243849  0.92249104    -0.76800
C13         C  0.86782582  0.66969586  0.13089936     0.83200
N14         N  0.84384644  0.68293865  0.11733850    -0.75100
C15         C  0.83376298  0.71014190  0.12701455     0.85600
N16         N  0.84822438  0.72452163  0.14988546    -0.75100
C17         C  0.87217170  0.71117076  0.16358933     0.85700
N18         N  0.88211146  0.68396852  0.15381220    -0.76800
C19         C  0.05732243  0.66905379  0.13064849     0.83200
N20         N  0.04332708  0.68342747  0.15368536    -0.75100
C21         C  0.05373460  0.71040700  0.16360156     0.85600
N22         N  0.07786171  0.72343721  0.14992495    -0.75100
C23         C  0.09203296  0.70896098  0.12693868     0.85700
N24         N  0.08148856  0.68198391  0.11711719    -0.76800
C25         C  0.86929284  0.36849868  0.13258396     0.83200
N26         N  0.88296260  0.35434078  0.15596644    -0.75100
C27         C  0.87265344  0.32725285  0.16573203     0.85600
N28         N  0.84899316  0.31391135  0.15155830    -0.75100
C29         C  0.83516860  0.32816397  0.12821779     0.85700
N30         N  0.84559733  0.35524327  0.11855956    -0.76800
C31         C  0.87079071  0.36880723  0.94478483     0.83200
N32         N  0.88433102  0.35539228  0.92087838    -0.75100
C33         C  0.87385596  0.32869325  0.91020794     0.85600
N34         N  0.85012991  0.31500516  0.92398589    -0.75100
C35         C  0.83644342  0.32850672  0.94785986     0.85700
N36         N  0.84703753  0.35519653  0.95838131    -0.76800
C37         C  0.05416907  0.36940750  0.94474633     0.83200
N38         N  0.04110349  0.35587401  0.92065897    -0.75100
C39         C  0.05228233  0.32952390  0.90985249     0.85600
N40         N  0.07622624  0.31627463  0.92364791    -0.75100
C41         C  0.08945189  0.32989240  0.94768975     0.85700
N42         N  0.07816619  0.35624318  0.95838038    -0.76800
C43         C  0.05518332  0.36860084  0.13225402     0.83200
N44         N  0.07910218  0.35572113  0.11825502    -0.75100
C45         C  0.08997041  0.32881862  0.12793364     0.85600
N46         N  0.07637265  0.31436197  0.15128243    -0.75100
C47         C  0.05250079  0.32735280  0.16543861     0.85700
N48         N  0.04175332  0.35425699  0.15564693    -0.76800
O49         O  0.02302358  0.56963933  0.09886715    -0.72300
O50         O  0.99567301  0.60462005  0.07271969    -0.51200
C51         C  0.01597341  0.59689111  0.09190848     0.81400
O52         O  0.02056165  0.46821689  0.97870369    -0.56900
O53         O  0.99437403  0.43333215  0.00610003    -0.49900
C54         C  0.01358853  0.44097431  0.98579116     0.73400
O55         O  0.02246673  0.56984939  0.98052136    -0.71500
O56         O  0.99548319  0.60478700  0.00707308    -0.52000
C57         C  0.01546140  0.59710884  0.98751707     0.79400
O58         O  0.02112900  0.46803630  0.10046969    -0.56600
O59         O  0.99484720  0.43327040  0.07301065    -0.49700
C60         C  0.01427061  0.44084123  0.09313478     0.76000
Zr61       Zr  0.00666080  0.51888689  0.08489385     2.54700
O62         O  0.06150926  0.51785753  0.08339157    -0.77200
O63         O  0.00515014  0.51908230  0.13978477    -0.90600
Zr64       Zr  0.00684168  0.51902973  0.99519833     2.64700
O65         O  0.06165690  0.51858631  0.99840589    -0.95600
O66         O  0.00708661  0.51956068  0.94032626    -0.77600
O67         O  0.00734416  0.54811694  0.04007094    -0.81000
O68         O  0.00739211  0.48981202  0.03999458    -2.15700
O69         O  0.90246817  0.46830907  0.10056705    -0.64400
O70         O  0.92874511  0.43347205  0.07317990    -0.48900
C71         C  0.90934729  0.44109557  0.09330961     0.74400
O72         O  0.90120499  0.57005099  0.98073134    -0.57300
O73         O  0.92868987  0.60485077  0.00695401    -0.49200
C74         C  0.90854240  0.59726695  0.98755051     0.76200
O75         O  0.90296813  0.46828712  0.97886135    -0.68700
O76         O  0.92924326  0.43336098  0.00614713    -0.47300
C77         C  0.90999976  0.44102743  0.98588550     0.77600
O78         O  0.90106479  0.56986121  0.09916881    -0.64000
O79         O  0.92835791  0.60469382  0.07277219    -0.51200
C80         C  0.90818520  0.59706867  0.09213167     0.76000
Zr81       Zr  0.91695005  0.51911065  0.08478943     2.77500
O82         O  0.86204846  0.51909206  0.08334744    -0.94700
O83         O  0.91874840  0.52000298  0.13963230    -0.75600
Zr84       Zr  0.91699721  0.51917460  0.99504812     2.70100
O85         O  0.86213055  0.51783922  0.99642312    -0.76800
O86         O  0.91908730  0.52101996  0.94024440    -0.95900
Zr87       Zr  0.96196236  0.57671537  0.03998491     2.21500
Zr88       Zr  0.96178882  0.46144240  0.03983723     2.11100
O89         O  0.91627525  0.49002350  0.03988576    -2.44600
O90         O  0.91644195  0.54830659  0.03993434    -0.76600
O91         O  0.96174412  0.48980705  0.08538028    -0.68800
O92         O  0.96195110  0.54816783  0.99449800    -2.29800
O93         O  0.96186603  0.54817939  0.08554371    -2.26000
O94         O  0.96186157  0.49003032  0.99445604    -0.70600
H95         H  0.02477268  0.47670085  0.03999189     0.81400
H96         H  0.96196081  0.56123070  0.97707104     0.82500
H97         H  0.89885612  0.47696874  0.03980413     0.84700
H98         H  0.96186535  0.56122780  0.10294836     0.82400
H99         H  0.98789788  0.52946183  0.93467900     0.45400
H100        H  0.93250734  0.50413550  0.93454053     0.44400
H101        H  0.85661736  0.53133155  0.01331480     0.44000
H102        H  0.85666542  0.50237022  0.06961018     0.42000
H103        H  0.93786749  0.50969178  0.14477301     0.45100
H104        H  0.99424585  0.53777082  0.14518828     0.39900
H105        H  0.06682129  0.52965057  0.06520445     0.46000
H106        H  0.06675635  0.49905076  0.00787856     0.42400
H107        H  0.85586573  0.51198122  0.10358281     0.47300
H108        H  0.02626705  0.52288905  0.14595795     0.46100
H109        H  0.06847605  0.51652865  0.97725040     0.46200
H110        H  0.89876675  0.51458547  0.93361200     0.46600
C111        C  0.61309879  0.92729474  0.13019948     0.83200
N112        N  0.62666204  0.94011047  0.15440198    -0.75100
C113        C  0.65300526  0.92879226  0.16517004     0.85600
N114        N  0.66621939  0.90494144  0.15120159    -0.75100
C115        C  0.65253430  0.89195598  0.12704598     0.85700
N116        N  0.62620092  0.90339727  0.11641928    -0.76800
C117        C  0.61318668  0.92708243  0.94269160     0.83200
N118        N  0.62692611  0.93991537  0.91862577    -0.75100
C119        C  0.65345242  0.92876567  0.90823170     0.85600
N120        N  0.66669682  0.90507752  0.92244192    -0.75100
C121        C  0.65281960  0.89205220  0.94646455     0.85700
N122        N  0.62628343  0.90333209  0.95674527    -0.76800
C123        C  0.61482039  0.11238135  0.94254294     0.83200
N124        N  0.62840452  0.09848380  0.91896756    -0.75100
C125        C  0.65566378  0.10815794  0.90893995     0.85600
N126        N  0.66975661  0.13140672  0.92305782    -0.75100
C127        C  0.65606316  0.14544798  0.94660826     0.85700
N128        N  0.62880445  0.13565881  0.95649121    -0.76800
C129        C  0.61446092  0.11160035  0.13093177     0.83200
N130        N  0.62836826  0.13511334  0.11728264    -0.75100
C131        C  0.65542338  0.14511728  0.12750710     0.85600
N132        N  0.66899917  0.13106635  0.15114136    -0.75100
C133        C  0.65499218  0.10757789  0.16498062     0.85700
N134        N  0.62793010  0.09769409  0.15459420    -0.76800
C135        C  0.31237982  0.11358435  0.94402480     0.83200
N136        N  0.29860977  0.09906023  0.92094451    -0.75100
C137        C  0.27124257  0.10840957  0.91091320     0.85600
N138        N  0.25723242  0.13201415  0.92451164    -0.75100
C139        C  0.27108723  0.14671595  0.94755632     0.85700
N140        N  0.29845962  0.13721493  0.95748500    -0.76800
C141        C  0.31468047  0.92466717  0.94417327     0.83200
N142        N  0.30166770  0.90055715  0.95769593    -0.75100
C143        C  0.27507446  0.88952029  0.94727120     0.85600
N144        N  0.26105995  0.90314561  0.92365883    -0.75100
C145        C  0.27418532  0.92720585  0.90998281     0.85700
N146        N  0.30076670  0.93810428  0.92052034    -0.76800
C147        C  0.31444053  0.92529181  0.12851093     0.83200
N148        N  0.30141682  0.90094017  0.11546160    -0.75100
C149        C  0.27519538  0.88964821  0.12653673     0.85600
N150        N  0.26155381  0.90322142  0.15039235    -0.75100
C151        C  0.27467380  0.92752825  0.16362948     0.85700
N152        N  0.30089586  0.93869635  0.15241534    -0.76800
C153        C  0.31227064  0.11282614  0.12883841     0.83200
N154        N  0.29891554  0.09828155  0.15217953    -0.75100
C155        C  0.27186212  0.10780762  0.16291972     0.85600
N156        N  0.25774946  0.13162793  0.14976694    -0.75100
C157        C  0.27119178  0.14633879  0.12646157     0.85700
N158        N  0.29824529  0.13666785  0.11586061    -0.76800
O159        O  0.51449501  0.08020232  0.09686798    -0.72300
O160        O  0.54952736  0.05386385  0.06975743    -0.51200
C161        C  0.54180600  0.07314393  0.08992850     0.81400
O162        O  0.41288098  0.96011424  0.09475696    -0.56900
O163        O  0.37789923  0.98734744  0.06847557    -0.49900
C164        C  0.38558936  0.96713958  0.08777570     0.73400
O165        O  0.51456501  0.96179814  0.09642635    -0.71500
O166        O  0.54956293  0.98834958  0.06947951    -0.52000
C167        C  0.54185580  0.96878741  0.08941801     0.79400
O168        O  0.41241995  0.08133226  0.09534521    -0.56600
O169        O  0.37765173  0.05427542  0.06860287    -0.49700
C170        C  0.38517110  0.07418174  0.08824717     0.76000
Zr171      Zr  0.46351581  0.06608301  0.08076420     2.54700
O172        O  0.46303792  0.06438355  0.13560018    -0.77200
O173        O  0.46319343  0.12090104  0.07931674    -0.90600
Zr174      Zr  0.46371347  0.97650083  0.08082983     2.64700
O175        O  0.46340996  0.97933370  0.13565443    -0.95600
O176        O  0.46444101  0.92169293  0.08030753    -0.77600
O177        O  0.49282485  0.02133734  0.08141505    -0.81000
O178        O  0.43441674  0.02121465  0.08133942    -2.15700
O179        O  0.41284849  0.08183618  0.97649946    -0.64400
O180        O  0.37797193  0.05441389  0.00273853    -0.48900
C181        C  0.38558847  0.07457312  0.98338399     0.74400
O182        O  0.51473106  0.96224320  0.97528600    -0.57300
O183        O  0.54962534  0.98835171  0.00277262    -0.49200
C184        C  0.54196495  0.96901431  0.98262014     0.76200
O185        O  0.41328014  0.96010815  0.97681096    -0.68700
O186        O  0.37814804  0.98726661  0.00294963    -0.47300
C187        C  0.38596565  0.96703213  0.98375205     0.77600
O188        O  0.51465110  0.08051861  0.97527206    -0.64000
O189        O  0.54952267  0.05419477  0.00262906    -0.51200
C190        C  0.54190055  0.07355316  0.98247672     0.76000
Zr191      Zr  0.46376991  0.06610413  0.99103653     2.77500
O192        O  0.46403581  0.06465060  0.93614594    -0.94700
O193        O  0.46461705  0.12087483  0.99308246    -0.75600
Zr194      Zr  0.46394694  0.97650606  0.99110606     2.70100
O195        O  0.46321543  0.97779979  0.93624459    -0.76800
O196        O  0.46602730  0.92178671  0.99354900    -0.95900
Zr197      Zr  0.52148400  0.02132926  0.03606255     2.21500
Zr198      Zr  0.40597234  0.02104800  0.03574010     2.11100
O199        O  0.43466655  0.02122253  0.99028416    -2.44600
O200        O  0.49305878  0.02135060  0.99056247    -0.76600
O201        O  0.43443137  0.06652229  0.03581508    -0.68800
O202        O  0.49295543  0.97590207  0.03602174    -2.29800
O203        O  0.49285423  0.06679646  0.03597770    -2.26000
O204        O  0.43465304  0.97577420  0.03587168    -0.70600
H205        H  0.42128033  0.02117912  0.09871306     0.81400
H206        H  0.50604298  0.95850961  0.03601258     0.82500
H207        H  0.42163271  0.02112781  0.97283363     0.84700
H208        H  0.50591428  0.08418359  0.03599593     0.82400
H209        H  0.47436440  0.91635117  0.06104601     0.45400
H210        H  0.44866738  0.91603204  0.00635136     0.44400
H211        H  0.47743316  0.99412244  0.93083297     0.55400
H212        H  0.44691367  0.05143902  0.93066145     0.42000
H213        H  0.45161060  0.12601922  0.01047958     0.45100
H214        H  0.48051207  0.12640430  0.06635561     0.39900
H215        H  0.47356575  0.04538916  0.14069516     0.46000
H216        H  0.44405518  0.98916759  0.14083274     0.42400
H217        H  0.45757495  0.08506698  0.92991534     0.47300
H218        H  0.46935312  0.12708741  0.09985793     0.46100
H219        H  0.46091782  0.95820825  0.14234688     0.46200
H220        H  0.46039355  0.91503008  0.97303938     0.46600
C221        C  0.05712917  0.92422253  0.68780841     0.83200
N222        N  0.08055318  0.93772093  0.70204101    -0.75100
C223        C  0.09061448  0.92697924  0.72887510     0.85600
N224        N  0.07671521  0.90299435  0.74190484    -0.75100
C225        C  0.05333535  0.88929401  0.72758675     0.85700
N226        N  0.04337094  0.90018450  0.70074242    -0.76800
C227        C  0.87192278  0.92447275  0.68760710     0.83200
N228        N  0.88511016  0.90016943  0.70062577    -0.75100
C229        C  0.87443673  0.88918255  0.72715013     0.85600
N230        N  0.85089256  0.90303664  0.74107197    -0.75100
C231        C  0.83755959  0.92729331  0.72792660     0.85700
N232        N  0.84834480  0.93812392  0.70142119    -0.76800
C233        C  0.87117158  0.11177154  0.68745487     0.83200
N234        N  0.84788301  0.09776872  0.70138519    -0.75100
C235        C  0.83750966  0.10804228  0.72825570     0.85600
N236        N  0.85095478  0.13208047  0.74163952    -0.75100
C237        C  0.87418809  0.14630088  0.72758683     0.85700
N238        N  0.88448459  0.13585919  0.70070861    -0.76800
C239        C  0.05735089  0.11154456  0.68837656     0.83200
N240        N  0.04377037  0.13556621  0.70150385    -0.75100
C241        C  0.05344394  0.14579763  0.72869749     0.85600
N242        N  0.07634532  0.13144160  0.74317164    -0.75100
C243        C  0.09006750  0.10745943  0.72994693     0.85700
N244        N  0.08029664  0.09738979  0.70275878    -0.76800
C245        C  0.87012140  0.11080956  0.38786691     0.83200
N246        N  0.88365951  0.13417072  0.37361834    -0.75100
C247        C  0.87284859  0.14427664  0.34683851     0.85600
N248        N  0.84877258  0.13046687  0.33385782    -0.75100
C249        C  0.83505044  0.10714200  0.34821347     0.85700
N250        N  0.84599975  0.09714015  0.37500342    -0.76800
C251        C  0.87109592  0.92518564  0.38780055     0.83200
N252        N  0.88468439  0.90174485  0.37369495    -0.75100
C253        C  0.87360612  0.89117482  0.34719006     0.85600
N254        N  0.84921256  0.90457308  0.33436204    -0.75100
C255        C  0.83545144  0.92796266  0.34855082     0.85700
N256        N  0.84665634  0.93843421  0.37505408    -0.76800
C257        C  0.05706666  0.92519752  0.38689930     0.83200
N258        N  0.08140210  0.93830653  0.37380619    -0.75100
C259        C  0.09204536  0.92789241  0.34704093     0.85600
N260        N  0.07782507  0.90471065  0.33296407    -0.75100
C261        C  0.05353559  0.89146576  0.34613890     0.85700
N262        N  0.04302682  0.90197169  0.37289412    -0.76800
C263        C  0.05757675  0.11039239  0.38644232     0.83200
N264        N  0.08142816  0.09664271  0.37313231    -0.75100
C265        C  0.09165021  0.10634070  0.34593460     0.85600
N266        N  0.07745448  0.12943768  0.33164537    -0.75100
C267        C  0.05363705  0.14331070  0.34505406     0.85700
N268        N  0.04358127  0.13352388  0.37224403    -0.76800
O269        O  0.02515623  0.95884517  0.58844508    -0.72300
O270        O  0.99821417  0.98541404  0.62341945    -0.51200
C271        C  0.01803064  0.96573020  0.61572334     0.81400
O272        O  0.02432151  0.07892167  0.48661992    -0.56900
O273        O  0.99778741  0.05175279  0.45180666    -0.49900
C274        C  0.01737447  0.07169054  0.45938079     0.73400
O275        O  0.02539508  0.07801086  0.58849730    -0.71500
O276        O  0.99821734  0.05164596  0.62346684    -0.52000
C277        C  0.01819212  0.07116814  0.61578047     0.79400
O278        O  0.02402770  0.95795993  0.48662520    -0.56600
O279        O  0.99748699  0.98515106  0.45180090    -0.49700
C280        C  0.01699203  0.96511513  0.45937282     0.76000
Zr281      Zr  0.00965362  0.97367071  0.53758084     2.54700
O282        O  0.06450913  0.97528435  0.53711494    -0.77200
O283        O  0.00821966  0.91884928  0.53774381    -0.90600
Zr284      Zr  0.00985884  0.06332855  0.53758554     2.64700
O285        O  0.06475703  0.06180023  0.53738250    -0.95600
O286        O  0.00861645  0.11814005  0.53786418    -0.77600
O287        O  0.01040571  0.01848940  0.56680957    -0.81000
O288        O  0.01035782  0.01849664  0.50845192    -2.15700
O289        O  0.90533954  0.95818285  0.48687003    -0.64400
O290        O  0.93166376  0.98538831  0.45190240    -0.48900
C291        C  0.91219460  0.96536188  0.45958261     0.74400
O292        O  0.90411739  0.07779759  0.58846416    -0.57300
O293        O  0.93152769  0.05163004  0.62340206    -0.49200
C294        C  0.91139202  0.07100420  0.61571420     0.76200
O295        O  0.90500659  0.07882821  0.48696767    -0.68700
O296        O  0.93150390  0.05180237  0.45200613    -0.47300
C297        C  0.91183609  0.07163036  0.45970301     0.77600
O298        O  0.90475205  0.95890707  0.58868434    -0.64000
O299        O  0.93170063  0.98557391  0.62357995    -0.51200
C300        C  0.91189975  0.96586148  0.61594039     0.76000
Zr301      Zr  0.91989658  0.97387347  0.53778431     2.77500
O302        O  0.86502740  0.97600895  0.53821477    -0.94700
O303        O  0.92113502  0.91908584  0.53834922    -0.75600
Zr304      Zr  0.92014467  0.06349985  0.53773645     2.70100
O305        O  0.86526400  0.06307155  0.53694119    -0.76800
O306        O  0.92316621  0.11820922  0.53927764    -0.95900
Zr307      Zr  0.96495276  0.01858425  0.59541943     2.21500
Zr308      Zr  0.96474202  0.01860728  0.47998853     2.11100
O309        O  0.91930522  0.01868164  0.50866810    -2.44600
O310        O  0.91943632  0.01868857  0.56697415    -0.76600
O311        O  0.96471021  0.97317789  0.50848650    -0.68800
O312        O  0.96502640  0.06400412  0.56680527    -2.29800
O313        O  0.96482936  0.97316739  0.56680080    -2.26000
O314        O  0.96493326  0.06409199  0.50839931    -0.70600
H315        H  0.02775056  0.01841638  0.49534831     0.81400
H316        H  0.96500555  0.08138499  0.57986232     0.82500
H317        H  0.90184519  0.01872839  0.49565693     0.84700
H318        H  0.96479956  0.95574218  0.57984976     0.82400
H319        H  0.99089582  0.12337518  0.55038256     0.45400
H320        H  0.93647549  0.12361011  0.52218890     0.44400
H321        H  0.85965508  0.04481668  0.54846975     0.44000
H322        H  0.85959225  0.98809635  0.52026150     0.42000
H323        H  0.94024420  0.91382990  0.52807437     0.45100
H324        H  0.99584281  0.91346041  0.55552212     0.39900
H325        H  0.06960368  0.99475861  0.54670333     0.46000
H326        H  0.07011160  0.04958025  0.51950121     0.42400
H327        H  0.85856268  0.95527410  0.53317155     0.47300
H328        H  0.02896204  0.91269818  0.54326138     0.46100
H329        H  0.07093041  0.08254571  0.53201202     0.46200
H330        H  0.90288218  0.12513861  0.53303418     0.46600
C331        C  0.93531061  0.28773908  0.21813846    -0.07900
C332        C  0.96273713  0.29855923  0.20717919    -0.01700
C333        C  0.99020078  0.28763530  0.21795372    -0.07900
C334        C  0.99058310  0.26531443  0.24063313     0.13100
C335        C  0.96283469  0.25419238  0.25214755     0.00300
C336        C  0.93503012  0.26550205  0.24091855     0.12900
C337        C  0.90784553  0.25404656  0.25249667    -0.09700
C338        C  0.90789947  0.23159828  0.27448108    -0.09700
C339        C  0.93514065  0.21978027  0.28558369     0.12900
C340        C  0.96289031  0.23127215  0.27444727     0.00300
C341        C  0.01782312  0.25357937  0.25181105    -0.09800
C342        C  0.01787603  0.23100498  0.27365685    -0.09800
C343        C  0.99069138  0.21943171  0.28511973     0.13100
C344        C  0.99041911  0.19607505  0.30674203    -0.07900
C345        C  0.96299045  0.18512161  0.31758639    -0.01700
C346        C  0.93551738  0.19649739  0.30727842    -0.07900
H347        H  0.88629558  0.26229960  0.24451997     0.10300
H348        H  0.88638266  0.22341069  0.28260425     0.10300
H349        H  0.03933756  0.26167050  0.24358562     0.10500
H350        H  0.03942892  0.22256585  0.28142656     0.10500
H351        H  0.96270674  0.31541778  0.18942732     0.07000
H352        H  0.96301785  0.16695435  0.33399084     0.07000
C353        C  0.23517891  0.04427920  0.21685017    -0.07900
C354        C  0.24605317  0.01687737  0.20594842    -0.01700
C355        C  0.23592452  0.98942803  0.21747352    -0.07900
C356        C  0.21435796  0.98906605  0.24096194     0.13100
C357        C  0.20318526  0.01679602  0.25244500     0.00300
C358        C  0.21369483  0.04455419  0.24040077     0.12900
C359        C  0.20215339  0.07169732  0.25192421    -0.09700
C360        C  0.18030144  0.07166770  0.27454453    -0.09700
C361        C  0.16920646  0.04449393  0.28642481     0.12900
C362        C  0.18090899  0.01676681  0.27546789     0.00300
C363        C  0.20336212  0.96188781  0.25295771    -0.09800
C364        C  0.18141935  0.96185995  0.27551679    -0.09800
C365        C  0.16975253  0.98900855  0.28690749     0.13100
C366        C  0.14687877  0.98931910  0.30912043    -0.07900
C367        C  0.13577982  0.01672468  0.31976420    -0.01700
C368        C  0.14636671  0.04414372  0.30865808    -0.07900
H369        H  0.20982747  0.09320650  0.24336015     0.10300
H370        H  0.17197931  0.09315068  0.28254467     0.10300
H371        H  0.21152227  0.94040282  0.24479660     0.10500
H372        H  0.17350745  0.94035864  0.28388651     0.10500
H373        H  0.26229315  0.01690441  0.18761270     0.07000
H374        H  0.11787240  0.01670421  0.33648057     0.07000
C375        C  0.14378187  0.29196825  0.06475682    -0.07900
C376        C  0.13288450  0.30288144  0.03734358    -0.01700
C377        C  0.14362009  0.29195587  0.00987246    -0.07900
C378        C  0.16633669  0.26962210  0.00949705     0.13100
C379        C  0.17784739  0.25847206  0.03725220     0.00300
C380        C  0.16656077  0.26972803  0.06503878     0.12900
C381        C  0.17801425  0.25815327  0.09223094    -0.09700
C382        C  0.19988729  0.23559362  0.09221641    -0.09700
C383        C  0.21106495  0.22382210  0.06501060     0.12900
C384        C  0.20011744  0.23549295  0.03723483     0.00300
C385        C  0.17753373  0.25786353  0.98228331    -0.09800
C386        C  0.19944817  0.23531687  0.98226145    -0.09800
C387        C  0.21089702  0.22372230  0.00945232     0.13100
C388        C  0.23257300  0.20038210  0.00977704    -0.07900
C389        C  0.24317678  0.18925477  0.03722950    -0.01700
C390        C  0.23263850  0.20040198  0.06468612    -0.07900
H391        H  0.16999962  0.26637853  0.11376729     0.10300
H392        H  0.20788665  0.22729569  0.11373613     0.10300
H393        H  0.16929891  0.26594939  0.96077060     0.10500
H394        H  0.20726592  0.22688832  0.96073177     0.10500
H395        H  0.11506445  0.31967101  0.03739344     0.07000
H396        H  0.25952557  0.17103455  0.03722747     0.07000
C397        C  0.69156002  0.99002540  0.21963919    -0.07900
C398        C  0.68125868  0.01748391  0.20830243    -0.01700
C399        C  0.69205749  0.04486422  0.21930343    -0.07900
C400        C  0.71359126  0.04510770  0.24279388     0.13100
C401        C  0.72422821  0.01732726  0.25468053     0.00300
C402        C  0.71317847  0.98961896  0.24305798     0.12900
C403        C  0.72433490  0.96241660  0.25484998    -0.09700
C404        C  0.74626957  0.96235070  0.27740603    -0.09700
C405        C  0.75776273  0.98948536  0.28899136     0.12900
C406        C  0.74649362  0.01725702  0.27769424     0.00300
C407        C  0.72505093  0.07223507  0.25441010    -0.09800
C408        C  0.74688860  0.07216501  0.27703137    -0.09800
C409        C  0.75804401  0.04496419  0.28881138     0.13100
C410        C  0.78078628  0.04458694  0.31111712    -0.07900
C411        C  0.79149340  0.01716140  0.32211340    -0.01700
C412        C  0.78056064  0.98976646  0.31127288    -0.07900
H413        H  0.71628814  0.94094469  0.24655048     0.10300
H414        H  0.75428959  0.94083307  0.28563585     0.10300
H415        H  0.71730050  0.09375834  0.24594320     0.10500
H416        H  0.75512778  0.09364109  0.28512839     0.10500
H417        H  0.66497500  0.01753858  0.19000379     0.07000
H418        H  0.80934359  0.01713513  0.33888996     0.07000
C419        C  0.93575345  0.75014038  0.21547669    -0.07900
C420        C  0.96319042  0.73949284  0.20435036    -0.01700
C421        C  0.99065616  0.75005840  0.21548313    -0.07900
C422        C  0.99101019  0.77181860  0.23870700     0.13100
C423        C  0.96324616  0.78271381  0.25041484     0.00300
C424        C  0.93545745  0.77182019  0.23877288     0.12900
C425        C  0.90825662  0.78310195  0.25050001    -0.09700
C426        C  0.90827734  0.80491044  0.27310723    -0.09700
C427        C  0.93549879  0.81619838  0.28476011     0.12900
C428        C  0.96326789  0.80493288  0.27340986     0.00300
C429        C  0.01823427  0.78317806  0.25029864    -0.09800
C430        C  0.01825590  0.80505970  0.27283813    -0.09800
C431        C  0.99105651  0.81629910  0.28460046     0.13100
C432        C  0.99074470  0.83886559  0.30704165    -0.07900
C433        C  0.96331022  0.84953073  0.31812612    -0.01700
C434        C  0.93585287  0.83871656  0.30724808    -0.07900
H435        H  0.88671252  0.77519679  0.24217593     0.10300
H436        H  0.88675376  0.81297482  0.28133649     0.10300
H437        H  0.03976092  0.77529724  0.24190058     0.10500
H438        H  0.03979454  0.81319688  0.28094976     0.10500
H439        H  0.96316792  0.72300631  0.18626461     0.07000
H440        H  0.96332513  0.86713007  0.33513024     0.07000
C441        C  0.23441559  0.98972026  0.85768529    -0.07900
C442        C  0.24485175  0.01717570  0.86889696    -0.01700
C443        C  0.23351780  0.04454268  0.85835579    -0.07900
C444        C  0.21127153  0.04477762  0.83555779     0.13100
C445        C  0.20050530  0.01700931  0.82383117     0.00300
C446        C  0.21213180  0.98931712  0.83491900     0.12900
C447        C  0.20091084  0.96210756  0.82323750    -0.09700
C448        C  0.17839619  0.96202630  0.80128190    -0.09700
C449        C  0.16634349  0.98915190  0.79023154     0.12900
C450        C  0.17761232  0.01692727  0.80146030     0.00300
C451        C  0.19926880  0.07190023  0.82445322    -0.09800
C452        C  0.17683362  0.07182182  0.80243823    -0.09800
C453        C  0.16558580  0.04461783  0.79079206     0.13100
C454        C  0.14237491  0.04422325  0.76898286    -0.07900
C455        C  0.13159954  0.01678116  0.75810455    -0.01700
C456        C  0.14306088  0.98940253  0.76848200    -0.07900
H457        H  0.20938248  0.94063672  0.83112901     0.10300
H458        H  0.17037970  0.94049920  0.79309706     0.10300
H459        H  0.20707702  0.09343009  0.83282733     0.10500
H460        H  0.16822045  0.09329275  0.79470409     0.10500
H461        H  0.26168588  0.01723260  0.88668748     0.07000
H462        H  0.11350397  0.01672272  0.74159679     0.07000
C463        C  0.99081016  0.29102135  0.85558877    -0.07900
C464        C  0.96334244  0.30171041  0.86658136    -0.01700
C465        C  0.93589803  0.29089408  0.85567695    -0.07900
C466        C  0.93562281  0.26894395  0.83258767     0.13100
C467        C  0.96344019  0.25792727  0.82104602     0.00300
C468        C  0.99119697  0.26899982  0.83260572     0.12900
C469        C  0.01843642  0.25747325  0.82120007    -0.09700
C470        C  0.01849657  0.23515149  0.79908149    -0.09700
C471        C  0.99132139  0.22362733  0.78755433     0.12900
C472        C  0.96350478  0.23526512  0.79845814     0.00300
C473        C  0.90845086  0.25743740  0.82103798    -0.09800
C474        C  0.90851269  0.23523371  0.79878975    -0.09800
C475        C  0.93575081  0.22372182  0.78736013     0.13100
C476        C  0.93614077  0.20064553  0.76542417    -0.07900
C477        C  0.96361901  0.18957505  0.75483481    -0.01700
C478        C  0.99105255  0.20046621  0.76569595    -0.07900
H479        H  0.03994581  0.26553313  0.82946587     0.10300
H480        H  0.04004455  0.22686243  0.79114263     0.10300
H481        H  0.88690550  0.26545798  0.82925438     0.10500
H482        H  0.88700451  0.22698826  0.79070773     0.10500
H483        H  0.96332913  0.31829269  0.88458361     0.07000
H484        H  0.96364836  0.17150433  0.73833207     0.07000
C485        C  0.14642153  0.74593584  0.06444886    -0.07900
C486        C  0.13520610  0.73544987  0.03700709    -0.01700
C487        C  0.14620260  0.74617512  0.00955823    -0.07900
C488        C  0.16949405  0.76790991  0.00924921     0.13100
C489        C  0.18129132  0.77866741  0.03704187     0.00300
C490        C  0.16974606  0.76759274  0.06480041     0.12900
C491        C  0.18151268  0.77875337  0.09202517    -0.09700
C492        C  0.20393971  0.80076007  0.09207016    -0.09700
C493        C  0.21538057  0.81236256  0.06489223     0.12900
C494        C  0.20413565  0.80106847  0.03708925     0.00300
C495        C  0.18100220  0.77945054  0.98207318    -0.09800
C496        C  0.20345248  0.80145466  0.98211786    -0.09800
C497        C  0.21516949  0.81268321  0.00934133     0.13100
C498        C  0.23735100  0.83552853  0.00971929    -0.07900
C499        C  0.24823180  0.84631281  0.03719139    -0.01700
C500        C  0.23748357  0.83527992  0.06462099    -0.07900
H501        H  0.17330612  0.77064324  0.11353795     0.10300
H502        H  0.21215982  0.80876749  0.11361123     0.10300
H503        H  0.17257886  0.77163465  0.96054046     0.10500
H504        H  0.21147509  0.80975576  0.96060932     0.10500
H505        H  0.11699204  0.71909260  0.03701971     0.07000
H506        H  0.26491476  0.86422336  0.03722802     0.07000
C507        C  0.78243298  0.29032625  0.01012253    -0.07900
C508        C  0.79302002  0.30133124  0.03761823    -0.01700
C509        C  0.78205314  0.29043198  0.06501561    -0.07900
C510        C  0.75938831  0.26808423  0.06526352     0.13100
C511        C  0.74821968  0.25678254  0.03745629     0.00300
C512        C  0.75976116  0.26796136  0.00972112     0.12900
C513        C  0.74865410  0.25618877  0.98248806    -0.09700
C514        C  0.72686376  0.23355055  0.98242281    -0.09700
C515        C  0.71543179  0.22188887  0.00959102     0.12900
C516        C  0.72604807  0.23372319  0.03739194     0.00300
C517        C  0.74792851  0.25645724  0.09243284    -0.09800
C518        C  0.72612993  0.23383217  0.09236782    -0.09800
C519        C  0.71505725  0.22202593  0.06513224     0.13100
C520        C  0.69357625  0.19852845  0.06475112    -0.07900
C521        C  0.68323038  0.18726565  0.03725743    -0.01700
C522        C  0.69393636  0.19841443  0.00984469    -0.07900
H523        H  0.75688165  0.26431659  0.96099050     0.10300
H524        H  0.71914113  0.22510102  0.96086819     0.10300
H525        H  0.75587738  0.26469486  0.11398795     0.10500
H526        H  0.71811940  0.22550617  0.11387186     0.10500
H527        H  0.81076901  0.31818736  0.03770409     0.07000
H528        H  0.66698123  0.16896457  0.03719579     0.07000
C529        C  0.93629465  0.74589071  0.85679410    -0.07900
C530        C  0.96376853  0.73524385  0.86783002    -0.01700
C531        C  0.99122535  0.74568368  0.85655055    -0.07900
C532        C  0.99152780  0.76726146  0.83309520     0.13100
C533        C  0.96372596  0.77814193  0.82140455     0.00300
C534        C  0.93595082  0.76740139  0.83328358     0.12900
C535        C  0.90873482  0.77874147  0.82163755    -0.09700
C536        C  0.90870757  0.80050483  0.79894525    -0.09700
C537        C  0.93589553  0.81172789  0.78713466     0.12900
C538        C  0.96369790  0.80035290  0.79833897     0.00300
C539        C  0.01871683  0.77854926  0.82133614    -0.09800
C540        C  0.01868757  0.80044402  0.79875874    -0.09800
C541        C  0.99146925  0.81175949  0.78709232     0.13100
C542        C  0.99110659  0.83451106  0.76477696    -0.07900
C543        C  0.96362973  0.84518862  0.75379003    -0.01700
C544        C  0.93618852  0.83438056  0.76473156    -0.07900
H545        H  0.88721551  0.77093561  0.83012294     0.10300
H546        H  0.88716958  0.80863331  0.79080966     0.10300
H547        H  0.04025529  0.77063892  0.82968272     0.10500
H548        H  0.04020253  0.80856806  0.79056526     0.10500
H549        H  0.96378624  0.71899350  0.88614257     0.07000
H550        H  0.96359831  0.86297525  0.73696738     0.07000
C551        C  0.69325203  0.04525155  0.85534019    -0.07900
C552        C  0.68196753  0.01789214  0.86591018    -0.01700
C553        C  0.69251243  0.99044483  0.85480096    -0.07900
C554        C  0.71478603  0.99000793  0.83205470     0.13100
C555        C  0.72637795  0.01768279  0.82093233     0.00300
C556        C  0.71554847  0.04546995  0.83258954     0.12900
C557        C  0.72756763  0.07257502  0.82149409    -0.09700
C558        C  0.75009114  0.07245633  0.79957308    -0.09700
C559        C  0.76140825  0.04522557  0.78802424     0.12900
C560        C  0.74935684  0.01755808  0.79866441     0.00300
C561        C  0.72605450  0.96277588  0.82046434    -0.09800
C562        C  0.74865339  0.96265499  0.79860890    -0.09800
C563        C  0.76074638  0.98976212  0.78758228     0.13100
C564        C  0.78422422  0.98996704  0.76604712    -0.07900
C565        C  0.79567200  0.01733898  0.75564054    -0.01700
C566        C  0.78474778  0.04479151  0.76637622    -0.07900
H567        H  0.71971262  0.09411254  0.82981256     0.10300
H568        H  0.75872843  0.09391851  0.79184974     0.10300
H569        H  0.71756921  0.94131763  0.82836733     0.10500
H570        H  0.75671957  0.94111326  0.79050495     0.10500
H571        H  0.66514874  0.01794674  0.88371658     0.07000
H572        H  0.81392520  0.01727031  0.73930923     0.07000
C573        C  0.77995229  0.74771611  0.06434976    -0.07900
C574        C  0.79118623  0.73718970  0.03692816    -0.01700
C575        C  0.78040136  0.74809091  0.00946000    -0.07900
C576        C  0.75722510  0.76994390  0.00909817     0.13100
C577        C  0.74542808  0.78076508  0.03686124     0.00300
C578        C  0.75682982  0.76959799  0.06464575     0.12900
C579        C  0.74514103  0.78090532  0.09184145    -0.09700
C580        C  0.72291972  0.80312228  0.09183188    -0.09700
C581        C  0.71159298  0.81478013  0.06462660     0.12900
C582        C  0.72276221  0.80335001  0.03685379     0.00300
C583        C  0.74584702  0.78155063  0.98189302    -0.09800
C584        C  0.72354463  0.80370570  0.98188459    -0.09800
C585        C  0.71187479  0.81504554  0.00908346     0.13100
C586        C  0.68991227  0.83810455  0.00941246    -0.07900
C587        C  0.67905560  0.84898958  0.03685853    -0.01700
C588        C  0.68970087  0.83790167  0.06430961    -0.07900
H589        H  0.75325874  0.77275692  0.11337443     0.10300
H590        H  0.71476510  0.81124109  0.11335622     0.10300
H591        H  0.75425759  0.77366852  0.96037862     0.10500
H592        H  0.71562009  0.81205148  0.96035543     0.10500
H593        H  0.80928000  0.72069471  0.03697545     0.07000
H594        H  0.66253304  0.86705193  0.03685834     0.07000
C595        C  0.01743407  0.18146016  0.31772288    -0.10300
C596        C  0.03633471  0.16557113  0.32913317    -0.11900
C597        C  0.11481797  0.08939837  0.33085209    -0.10300
C598        C  0.13139575  0.07095962  0.31963979    -0.11900
C599        C  0.04498153  0.09831588  0.41377167    -0.10300
C600        C  0.03288748  0.08687345  0.43530759    -0.11900
C601        C  0.11561578  0.94427326  0.33196990    -0.10300
C602        C  0.13227568  0.96247288  0.32049576    -0.11900
C603        C  0.03636905  0.86906625  0.33028575    -0.10300
C604        C  0.01768750  0.85317880  0.31854022    -0.11900
C605        C  0.04427110  0.93787250  0.41388489    -0.10300
C606        C  0.03227214  0.94968036  0.43528772    -0.11900
C607        C  0.79521223  0.96289201  0.32251058    -0.10300
C608        C  0.81184512  0.94454063  0.33377339    -0.11900
C609        C  0.89039519  0.86867590  0.33107350    -0.10300
C610        C  0.90892817  0.85283431  0.31903076    -0.11900
C611        C  0.89674867  0.94991232  0.43561609    -0.10300
C612        C  0.88446616  0.93797011  0.41445185    -0.11900
C613        C  0.88976988  0.16660558  0.33065833    -0.10300
C614        C  0.90853567  0.18232499  0.31883632    -0.11900
C615        C  0.81186154  0.09008364  0.33338572    -0.10300
C616        C  0.79549636  0.07144553  0.32225140    -0.11900
C617        C  0.88347508  0.09838377  0.41465039    -0.10300
C618        C  0.89603801  0.08675113  0.43579956    -0.11900
C619        C  0.01798198  0.18558316  0.75478621    -0.10300
C620        C  0.03650646  0.16903190  0.74366091    -0.11900
C621        C  0.11207783  0.09002113  0.74609369    -0.10300
C622        C  0.12780000  0.07113425  0.75774967    -0.11900
C623        C  0.03349530  0.08671790  0.63975448    -0.10300
C624        C  0.04512373  0.09886741  0.66115529    -0.11900
C625        C  0.89084166  0.16954220  0.74278608    -0.10300
C626        C  0.90926026  0.18599579  0.75417830    -0.11900
C627        C  0.79940044  0.07170379  0.75534151    -0.10300
C628        C  0.81522844  0.09066715  0.74401309    -0.11900
C629        C  0.88399613  0.09883871  0.66067482    -0.10300
C630        C  0.89595325  0.08649834  0.63959219    -0.11900
C631        C  0.89093267  0.86566313  0.74216606    -0.10300
C632        C  0.90928316  0.84905169  0.75349052    -0.11900
C633        C  0.81479616  0.94420622  0.74357920    -0.10300
C634        C  0.79868556  0.96294825  0.75493056    -0.11900
C635        C  0.88487823  0.93772066  0.66100342    -0.10300
C636        C  0.89671681  0.95018083  0.63989863    -0.11900
C637        C  0.12893451  0.96242023  0.75690286    -0.10300
C638        C  0.11309142  0.94379285  0.74502013    -0.11900
C639        C  0.03637676  0.86597495  0.74241333    -0.10300
C640        C  0.01795835  0.84936350  0.75363387    -0.11900
C641        C  0.03320837  0.94997850  0.63965967    -0.10300
C642        C  0.04479349  0.93748386  0.66089770    -0.11900
C643        C  0.24584610  0.07122087  0.20182118    -0.10300
C644        C  0.25681056  0.09010099  0.18555533    -0.11900
C645        C  0.25530597  0.16934536  0.11006088    -0.10300
C646        C  0.24376071  0.18570308  0.09162316    -0.11900
C647        C  0.33949308  0.10093048  0.11575322    -0.10300
C648        C  0.36101742  0.08944303  0.10363244    -0.11900
C649        C  0.25909462  0.94414461  0.18670707    -0.10300
C650        C  0.24740699  0.96253814  0.20300735    -0.11900
C651        C  0.26007022  0.86622521  0.11005842    -0.10300
C652        C  0.24872898  0.84979822  0.09158139    -0.11900
C653        C  0.36167063  0.95124012  0.10288442    -0.10300
C654        C  0.34074330  0.93876648  0.11507731    -0.11900
C655        C  0.25821399  0.94409403  0.88743476    -0.10300
C656        C  0.24630444  0.96279434  0.87168674    -0.11900
C657        C  0.25999048  0.86640461  0.96421557    -0.10300
C658        C  0.24862541  0.85013200  0.98281864    -0.11900
C659        C  0.34120730  0.93813444  0.95704474    -0.10300
C660        C  0.36216561  0.95086717  0.96884320    -0.11900
C661        C  0.25535883  0.16952359  0.96435052    -0.10300
C662        C  0.24377443  0.18576076  0.98285235    -0.11900
C663        C  0.25576721  0.09059220  0.88873897    -0.10300
C664        C  0.24452791  0.07153154  0.87293940    -0.11900
C665        C  0.33987948  0.10171839  0.95645777    -0.10300
C666        C  0.36151359  0.09007365  0.96818472    -0.11900
C667        C  0.68244322  0.18389628  0.09171312    -0.10300
C668        C  0.67109990  0.16778458  0.11047856    -0.11900
C669        C  0.68130477  0.07179980  0.20435681    -0.10300
C670        C  0.67021089  0.09045573  0.18793356    -0.11900
C671        C  0.58726261  0.09936757  0.11818909    -0.10300
C672        C  0.56579886  0.08795983  0.10592796    -0.11900
C673        C  0.67178289  0.16783403  0.96390450    -0.10300
C674        C  0.68305317  0.18378645  0.98281709    -0.11900
C675        C  0.67101381  0.09093963  0.88620364    -0.10300
C676        C  0.68225938  0.07219224  0.87003094    -0.11900
C677        C  0.56593731  0.08863723  0.96686643    -0.10300
C678        C  0.58747042  0.10023020  0.95494859    -0.11900
C679        C  0.66781961  0.86913014  0.96372911    -0.10300
C680        C  0.67892807  0.85285300  0.98247783    -0.11900
C681        C  0.66922786  0.94508519  0.88518422    -0.10300
C682        C  0.68090054  0.96357357  0.86905305    -0.11900
C683        C  0.56583160  0.95346693  0.96726201    -0.10300
C684        C  0.58674817  0.94080578  0.95536881    -0.11900
C685        C  0.66861404  0.94493749  0.18852835    -0.10300
C686        C  0.68022788  0.96318215  0.20502205    -0.11900
C687        C  0.66755000  0.86887780  0.10999305    -0.10300
C688        C  0.67864407  0.85255892  0.09127169    -0.11900
C689        C  0.58671291  0.94097617  0.11720028    -0.10300
C690        C  0.56575552  0.95337368  0.10500798    -0.11900
C691        C  0.01712710  0.29919606  0.20368725    -0.10300
C692        C  0.03574724  0.31110295  0.18785494    -0.11900
C693        C  0.12921503  0.30306913  0.09172980    -0.10300
C694        C  0.11298073  0.31407792  0.11056741    -0.11900
C695        C  0.02970461  0.41685081  0.10846245    -0.10300
C696        C  0.04196424  0.39555629  0.12011874    -0.11900
C697        C  0.12899710  0.30328803  0.98300293    -0.10300
C698        C  0.11262002  0.31473704  0.96453078    -0.11900
C699        C  0.03597699  0.31396972  0.88660122    -0.10300
C700        C  0.01768284  0.30234843  0.87017211    -0.11900
C701        C  0.04073796  0.39593198  0.95770024    -0.10300
C702        C  0.02862307  0.41702823  0.96991411    -0.11900
C703        C  0.81346829  0.31303998  0.96471498    -0.10300
C704        C  0.79714265  0.30159952  0.98325251    -0.11900
C705        C  0.89058343  0.31339823  0.88700060    -0.10300
C706        C  0.90898304  0.30200839  0.87046600    -0.11900
C707        C  0.88350215  0.39571338  0.95766127    -0.10300
C708        C  0.89513692  0.41704571  0.96991916    -0.11900
C709        C  0.90832857  0.29932253  0.20394973    -0.10300
C710        C  0.88965120  0.31119394  0.18813334    -0.11900
C711        C  0.79638233  0.30174857  0.09201703    -0.10300
C712        C  0.81241171  0.31305367  0.11084749    -0.11900
C713        C  0.88206026  0.39568191  0.12046730    -0.10300
C714        C  0.89403466  0.41711280  0.10876692    -0.11900
C715        C  0.03646756  0.72664274  0.18564785    -0.10300
C716        C  0.01763755  0.73852819  0.20125944    -0.11900
C717        C  0.13172858  0.73488512  0.09137350    -0.10300
C718        C  0.11529904  0.72379168  0.10999282    -0.11900
C719        C  0.03201206  0.62076980  0.10677758    -0.10300
C720        C  0.04439580  0.64204186  0.11833263    -0.11900
C721        C  0.88973449  0.72720174  0.18555187    -0.10300
C722        C  0.90872710  0.73882545  0.20116336    -0.11900
C723        C  0.81070809  0.72524365  0.11000328    -0.10300
C724        C  0.79445267  0.73649686  0.09131868    -0.11900
C725        C  0.88031650  0.64245411  0.11868153    -0.10300
C726        C  0.89240906  0.62103233  0.10711413    -0.11900
C727        C  0.89073788  0.72400728  0.88828132    -0.10300
C728        C  0.90937902  0.73504681  0.87177965    -0.11900
C729        C  0.81198088  0.72569889  0.96434840    -0.10300
C730        C  0.79535766  0.73714419  0.98260629    -0.11900
C731        C  0.88160302  0.64252852  0.95965341    -0.10300
C732        C  0.89323396  0.62127145  0.97204867    -0.11900
C733        C  0.11477175  0.72366448  0.96439520    -0.10300
C734        C  0.13137410  0.73512413  0.98266872    -0.11900
C735        C  0.01816197  0.73455870  0.87128422    -0.10300
C736        C  0.03662645  0.72320124  0.88776874    -0.11900
C737        C  0.03107560  0.62101325  0.97210625    -0.10300
C738        C  0.04325303  0.64200528  0.95974916    -0.11900
loop_ 
_geom_bond_atom_site_label_1 
_geom_bond_atom_site_label_2 
_geom_bond_distance 
_geom_bond_site_symmetry_2 
_ccdc_geom_bond_type 
C1            N2   1.356       .  A
C1            N6   1.356       .  A
C1          C738   1.440       .  S
N2            C3   1.359       .  A
C3            N4   1.360       .  A
C3          C736   1.439       .  S
N4            C5   1.360       .  A
C5            N6   1.358       .  A
C5          C733   1.438       .  S
C7            N8   1.356       .  A
C7           N12   1.356       .  A
C7          C731   1.439       .  S
N8            C9   1.358       .  A
C9           N10   1.360       .  A
C9          C729   1.438       .  S
N10          C11   1.360       .  A
C11          N12   1.359       .  A
C11         C727   1.439       .  S
C13          N14   1.356       .  A
C13          N18   1.355       .  A
C13         C725   1.437       .  S
N14          C15   1.358       .  A
C15          N16   1.360       .  A
C15         C723   1.437       .  S
N16          C17   1.360       .  A
C17          N18   1.357       .  A
C17         C721   1.436       .  S
C19          N20   1.355       .  A
C19          N24   1.356       .  A
C19         C720   1.438       .  S
N20          C21   1.357       .  A
C21          N22   1.359       .  A
C21         C715   1.436       .  S
N22          C23   1.359       .  A
C23          N24   1.358       .  A
C23         C718   1.436       .  S
C25          N26   1.356       .  A
C25          N30   1.356       .  A
C25         C713   1.438       .  S
N26          C27   1.358       .  A
C27          N28   1.359       .  A
C27         C710   1.436       .  S
N28          C29   1.359       .  A
C29          N30   1.358       .  A
C29         C712   1.436       .  S
C31          N32   1.357       .  A
C31          N36   1.356       .  A
C31         C707   1.440       .  S
N32          C33   1.359       .  A
C33          N34   1.360       .  A
C33         C705   1.439       .  S
N34          C35   1.360       .  A
C35          N36   1.358       .  A
C35         C703   1.438       .  S
C37          N38   1.356       .  A
C37          N42   1.356       .  A
C37         C701   1.440       .  S
N38          C39   1.358       .  A
C39          N40   1.359       .  A
C39         C699   1.437       .  S
N40          C41   1.359       .  A
C41          N42   1.358       .  A
C41         C698   1.437       .  S
C43          N44   1.356       .  A
C43          N48   1.355       .  A
C43         C696   1.437       .  S
N44          C45   1.358       .  A
C45          N46   1.359       .  A
C45         C694   1.436       .  S
N46          C47   1.359       .  A
C47          N48   1.358       .  A
C47         C692   1.436       .  S
O49         Zr61   2.448       .  S
O49          C51   1.287       .  A
O50         Zr87   2.425       .  S
O50          C51   1.285   1_655  A
C51         C719   1.437       .  S
O52         Zr64   2.449       .  S
O52          C54   1.288       .  A
O53         Zr88   2.426       .  S
O53          C54   1.286   1_654  A
C54         C702   1.439       .  S
O55         Zr64   2.449       .  S
O55          C57   1.288       .  A
O56         Zr87   2.428       .  S
O56          C57   1.286   1_654  A
C57         C737   1.440       .  S
O58         Zr61   2.447       .  S
O58          C60   1.287       .  A
O59         Zr88   2.424       .  S
O59          C60   1.285   1_655  A
C60         C695   1.437       .  S
Zr61         O62   2.434       .  S
Zr61         O63   2.436       .  S
Zr61         O67   2.374       .  S
Zr61         O68   2.374       .  S
Zr61         O91   2.374   1_455  S
Zr61         O93   2.374   1_455  S
O62         H105   0.990       .  S
O63         H104   0.990   1_455  S
O63         H108   0.990       .  S
Zr64         O65   2.435       .  S
Zr64         O66   2.434       .  S
Zr64         O68   2.373   1_556  S
Zr64         O67   2.373   1_556  S
Zr64         O92   2.374   1_455  S
Zr64         O94   2.375   1_455  S
O65         H106   0.990   1_556  S
O65         H109   0.990       .  S
O66          H99   0.990   1_455  S
O67         Zr87   2.380   1_455  S
O68         Zr88   2.383   1_455  S
O68          H95   0.966       .  S
O69         Zr81   2.448       .  S
O69          C71   1.287       .  A
O70         Zr88   2.424       .  S
O70          C71   1.285       .  A
C71         C714   1.437       .  S
O72         Zr84   2.449       .  S
O72          C74   1.288       .  A
O73         Zr87   2.425       .  S
O73          C74   1.286   1_554  A
C74         C732   1.439       .  S
O75         Zr84   2.452       .  S
O75          C77   1.288       .  A
O76         Zr88   2.423       .  S
O76          C77   1.285   1_554  A
C77         C708   1.439       .  S
O78         Zr81   2.446       .  S
O78          C80   1.287       .  A
O79         Zr87   2.425       .  S
O79          C80   1.285       .  A
C80         C726   1.437       .  S
Zr81         O82   2.435       .  S
Zr81         O83   2.434       .  S
Zr81         O89   2.375       .  S
Zr81         O90   2.375       .  S
Zr81         O93   2.374       .  S
Zr81         O91   2.375       .  S
O82         H102   0.990       .  S
O82         H107   0.990       .  S
O83         H103   0.990       .  S
Zr84         O85   2.435       .  S
Zr84         O86   2.434       .  S
Zr84         O90   2.375   1_556  S
Zr84         O89   2.373   1_556  S
Zr84         O94   2.373       .  S
Zr84         O92   2.373       .  S
O85         H101   0.990   1_556  S
O86         H100   0.990       .  S
O86         H110   0.990       .  S
Zr87         O90   2.381       .  S
Zr87         O92   2.383   1_554  S
Zr87         O93   2.385       .  S
Zr88         O89   2.384       .  S
Zr88         O91   2.381       .  S
Zr88         O94   2.380   1_554  S
O89          H97   0.966       .  S
O92          H96   0.966       .  S
O93          H98   0.965       .  S
C111        N112   1.356       .  A
C111        N116   1.356       .  A
C111        C689   1.439       .  S
N112        C113   1.358       .  A
C113        N114   1.360       .  A
C113        C685   1.438       .  S
N114        C115   1.360       .  A
C115        N116   1.358       .  A
C115        C687   1.437       .  S
C117        N118   1.355       .  A
C117        N122   1.356       .  A
C117        C684   1.436       .  S
N118        C119   1.357       .  A
C119        N120   1.360       .  A
C119        C681   1.435       .  S
N120        C121   1.360       .  A
C121        N122   1.358       .  A
C121        C679   1.437       .  S
C123        N124   1.356       .  A
C123        N128   1.355       .  A
C123        C678   1.437       .  S
N124        C125   1.358       .  A
C125        N126   1.360       .  A
C125        C675   1.437       .  S
N126        C127   1.360       .  A
C127        N128   1.357       .  A
C127        C673   1.437       .  S
C129        N130   1.355       .  A
C129        N134   1.356       .  A
C129        C671   1.439       .  S
N130        C131   1.357       .  A
C131        N132   1.360       .  A
C131        C668   1.438       .  S
N132        C133   1.360       .  A
C133        N134   1.358       .  A
C133        C670   1.439       .  S
C135        N136   1.356       .  A
C135        N140   1.356       .  A
C135        C665   1.438       .  S
N136        C137   1.358       .  A
C137        N138   1.360       .  A
C137        C663   1.437       .  S
N138        C139   1.360       .  A
C139        N140   1.358       .  A
C139        C661   1.438       .  S
C141        N142   1.356       .  A
C141        N146   1.355       .  A
C141        C659   1.438       .  S
N142        C143   1.358       .  A
C143        N144   1.360       .  A
C143        C657   1.437       .  S
N144        C145   1.360       .  A
C145        N146   1.357       .  A
C145        C655   1.437       .  S
C147        N148   1.356       .  A
C147        N152   1.356       .  A
C147        C654   1.440       .  S
N148        C149   1.358       .  A
C149        N150   1.360       .  A
C149        C651   1.438       .  S
N150        C151   1.360       .  A
C151        N152   1.359       .  A
C151        C649   1.439       .  S
C153        N154   1.356       .  A
C153        N158   1.356       .  A
C153        C647   1.440       .  S
N154        C155   1.358       .  A
C155        N156   1.360       .  A
C155        C644   1.439       .  S
N156        C157   1.360       .  A
C157        N158   1.358       .  A
C157        C645   1.438       .  S
O159       Zr171   2.452       .  S
O159        C161   1.288       .  A
O160       Zr197   2.423       .  S
O160        C161   1.285       .  A
C161        C672   1.438       .  S
O162       Zr174   2.448       .  S
O162        C164   1.288       .  A
O163       Zr198   2.428   1_565  S
O163        C164   1.286       .  A
C164        C653   1.440       .  S
O165       Zr174   2.447       .  S
O165        C167   1.287       .  A
O166       Zr197   2.427   1_565  S
O166        C167   1.286       .  A
C167        C690   1.439       .  S
O168       Zr171   2.452       .  S
O168        C170   1.288       .  A
O169       Zr198   2.425       .  S
O169        C170   1.286       .  A
C170        C648   1.440       .  S
Zr171       O172   2.434       .  S
Zr171       O173   2.435       .  S
Zr171       O177   2.374       .  S
Zr171       O178   2.374       .  S
Zr171       O201   2.375       .  S
Zr171       O203   2.375       .  S
O172        H215   0.990       .  S
O173        H214   0.990       .  S
O173        H218   0.990       .  S
Zr174       O175   2.435       .  S
Zr174       O176   2.434       .  S
Zr174       O178   2.373   1_565  S
Zr174       O177   2.373   1_565  S
Zr174       O202   2.373       .  S
Zr174       O204   2.375       .  S
O175        H216   0.990       .  S
O175        H219   0.990       .  S
O176        H209   0.990       .  S
O177       Zr197   2.380       .  S
O178       Zr198   2.384       .  S
O178        H205   0.966       .  S
O179       Zr191   2.450       .  S
O179        C181   1.288       .  A
O180       Zr198   2.424       .  S
O180        C181   1.285   1_554  A
C181        C666   1.438       .  S
O182       Zr194   2.442       .  S
O182        C184   1.286       .  A
O183       Zr197   2.426   1_565  S
O183        C184   1.286   1_554  A
C184        C683   1.436       .  S
O185       Zr194   2.446       .  S
O185        C187   1.287       .  A
O186       Zr198   2.427   1_565  S
O186        C187   1.286   1_554  A
C187        C660   1.438       .  S
O188       Zr191   2.447       .  S
O188        C190   1.288       .  A
O189       Zr197   2.424       .  S
O189        C190   1.285   1_554  A
C190        C677   1.437       .  S
Zr191       O192   2.436       .  S
Zr191       O193   2.434       .  S
Zr191       O199   2.375       .  S
Zr191       O200   2.374       .  S
Zr191       O203   2.374   1_556  S
Zr191       O201   2.374   1_556  S
O192        H212   0.990       .  S
O192        H217   0.990       .  S
O193        H213   0.990   1_556  S
Zr194       O195   2.434       .  S
Zr194       O196   2.434       .  S
Zr194       O200   2.374   1_565  S
Zr194       O199   2.373   1_565  S
Zr194       O204   2.373   1_556  S
Zr194       O202   2.372   1_556  S
O195        H211   0.990       .  S
O196        H210   0.990   1_556  S
O196        H220   0.990       .  S
Zr197       O200   2.379   1_554  S
Zr197       O202   2.381   1_545  S
Zr197       O203   2.385       .  S
Zr198       O199   2.384   1_554  S
Zr198       O201   2.382       .  S
Zr198       O204   2.379   1_545  S
O199        H207   0.966       .  S
O202        H206   0.966       .  S
O203        H208   0.965       .  S
C221        N222   1.355       .  A
C221        N226   1.357       .  A
C221        C642   1.439       .  S
N222        C223   1.358       .  A
C223        N224   1.360       .  A
C223        C638   1.437       .  S
N224        C225   1.360       .  A
C225        N226   1.359       .  A
C225        C639   1.439       .  S
C227        N228   1.356       .  A
C227        N232   1.355       .  A
C227        C635   1.438       .  S
N228        C229   1.359       .  A
C229        N230   1.360       .  A
C229        C631   1.438       .  S
N230        C231   1.360       .  A
C231        N232   1.357       .  A
C231        C633   1.437       .  S
C233        N234   1.355       .  A
C233        N238   1.356       .  A
C233        C629   1.437       .  S
N234        C235   1.357       .  A
C235        N236   1.359       .  A
C235        C628   1.435       .  S
N236        C237   1.360       .  A
C237        N238   1.358       .  A
C237        C625   1.437       .  S
C239        N240   1.356       .  A
C239        N244   1.355       .  A
C239        C624   1.439       .  S
N240        C241   1.359       .  A
C241        N242   1.360       .  A
C241        C620   1.439       .  S
N242        C243   1.360       .  A
C243        N244   1.357       .  A
C243        C621   1.437       .  S
C245        N246   1.355       .  A
C245        N250   1.356       .  A
C245        C617   1.437       .  S
N246        C247   1.357       .  A
C247        N248   1.359       .  A
C247        C613   1.436       .  S
N248        C249   1.360       .  A
C249        N250   1.358       .  A
C249        C615   1.437       .  S
C251        N252   1.356       .  A
C251        N256   1.356       .  A
C251        C612   1.439       .  S
N252        C253   1.358       .  A
C253        N254   1.359       .  A
C253        C609   1.437       .  S
N254        C255   1.359       .  A
C255        N256   1.359       .  A
C255        C608   1.438       .  S
C257        N258   1.357       .  A
C257        N262   1.356       .  A
C257        C605   1.439       .  S
N258        C259   1.359       .  A
C259        N260   1.359       .  A
C259        C601   1.438       .  S
N260        C261   1.359       .  A
C261        N262   1.358       .  A
C261        C603   1.437       .  S
C263        N264   1.357       .  A
C263        N268   1.355       .  A
C263        C599   1.438       .  S
N264        C265   1.359       .  A
C265        N266   1.360       .  A
C265        C597   1.439       .  S
N266        C267   1.360       .  A
C267        N268   1.357       .  A
C267        C596   1.437       .  S
O269       Zr281   2.448       .  S
O269        C271   1.287       .  A
O270       Zr307   2.426   1_565  S
O270        C271   1.286   1_655  A
C271        C641   1.438       .  S
O272       Zr284   2.450       .  S
O272        C274   1.288       .  A
O273       Zr308   2.424       .  S
O273        C274   1.285   1_655  A
C274        C600   1.438       .  S
O275       Zr284   2.450       .  S
O275        C277   1.288       .  A
O276       Zr307   2.425       .  S
O276        C277   1.286   1_655  A
C277        C623   1.438       .  S
O278       Zr281   2.450       .  S
O278        C280   1.288       .  A
O279       Zr308   2.425   1_565  S
O279        C280   1.285   1_655  A
C280        C606   1.439       .  S
Zr281       O282   2.434       .  S
Zr281       O283   2.435       .  S
Zr281       O287   2.376   1_565  S
Zr281       O288   2.373   1_565  S
Zr281       O311   2.374   1_455  S
Zr281       O313   2.373   1_455  S
O282        H325   0.990       .  S
O283        H324   0.990   1_455  S
O283        H328   0.990       .  S
Zr284       O285   2.435       .  S
Zr284       O286   2.435       .  S
Zr284       O288   2.374       .  S
Zr284       O287   2.376       .  S
Zr284       O312   2.373   1_455  S
Zr284       O314   2.376   1_455  S
O285        H326   0.990       .  S
O285        H329   0.990       .  S
O286        H319   0.990   1_455  S
O287       Zr307   2.382   1_455  S
O288       Zr308   2.384   1_455  S
O288        H315   0.966       .  S
O289       Zr301   2.450       .  S
O289        C291   1.288       .  A
O290       Zr308   2.425   1_565  S
O290        C291   1.285       .  A
C291        C611   1.439       .  S
O292       Zr304   2.444       .  S
O292        C294   1.287       .  A
O293       Zr307   2.427       .  S
O293        C294   1.286       .  A
C294        C630   1.437       .  S
O295       Zr304   2.446       .  S
O295        C297   1.287       .  A
O296       Zr308   2.426       .  S
O296        C297   1.286       .  A
C297        C618   1.437       .  S
O298       Zr301   2.447       .  S
O298        C300   1.288       .  A
O299       Zr307   2.426   1_565  S
O299        C300   1.286       .  A
C300        C636   1.438       .  S
Zr301       O302   2.435       .  S
Zr301       O303   2.434       .  S
Zr301       O309   2.372   1_565  S
Zr301       O310   2.375   1_565  S
Zr301       O313   2.372       .  S
Zr301       O311   2.375       .  S
O302        H322   0.990       .  S
O302        H327   0.990       .  S
O303        H323   0.990       .  S
Zr304       O305   2.434       .  S
Zr304       O306   2.434       .  S
Zr304       O310   2.375       .  S
Zr304       O309   2.372       .  S
Zr304       O314   2.375       .  S
Zr304       O312   2.372       .  S
O305        H321   0.990       .  S
O306        H320   0.990       .  S
O306        H330   0.990       .  S
Zr307       O310   2.380       .  S
Zr307       O312   2.383       .  S
Zr307       O313   2.384   1_545  S
Zr308       O309   2.383       .  S
Zr308       O311   2.380   1_545  S
Zr308       O314   2.381       .  S
O309        H317   0.966       .  S
O312        H316   0.965       .  S
O313        H318   0.966       .  S
C331        C709   1.446       .  S
C331        C332   1.395       .  A
C331        C336   1.413       .  A
C332        C333   1.395       .  A
C332        H351   1.086       .  S
C333        C691   1.446   1_655  S
C333        C334   1.412       .  A
C334        C335   1.421       .  A
C334        C341   1.406   1_655  A
C335        C336   1.421       .  A
C335        C340   1.419       .  A
C336        C337   1.406       .  A
C337        C338   1.394       .  A
C337        H347   1.083       .  S
C338        C339   1.406       .  A
C338        H348   1.083       .  S
C339        C340   1.421       .  A
C339        C346   1.412       .  A
C340        C343   1.421       .  A
C341        C342   1.394       .  A
C341        H349   1.083       .  S
C342        C343   1.406   1_455  A
C342        H350   1.083       .  S
C343        C344   1.413       .  A
C344        C595   1.447   1_655  S
C344        C345   1.396       .  A
C345        C346   1.396       .  A
C345        H352   1.086       .  S
C346        C614   1.446       .  S
C353        C643   1.449       .  S
C353        C354   1.396       .  A
C353        C358   1.414       .  A
C354        C355   1.396   1_545  A
C354        H373   1.086       .  S
C355        C650   1.448       .  S
C355        C356   1.414       .  A
C356        C357   1.422   1_565  A
C356        C363   1.406       .  A
C357        C358   1.422       .  A
C357        C362   1.421       .  A
C358        C359   1.406       .  A
C359        C360   1.395       .  A
C359        H369   1.083       .  S
C360        C361   1.406       .  A
C360        H370   1.083       .  S
C361        C362   1.422       .  A
C361        C368   1.414       .  A
C362        C365   1.422   1_545  A
C363        C364   1.396       .  A
C363        H371   1.083       .  S
C364        C365   1.406       .  A
C364        H372   1.083       .  S
C365        C366   1.414       .  A
C366        C602   1.447       .  S
C366        C367   1.395   1_565  A
C367        C368   1.395       .  A
C367        H374   1.086       .  S
C368        C598   1.448       .  S
C375        C693   1.446       .  S
C375        C376   1.395       .  A
C375        C380   1.413       .  A
C376        C377   1.395       .  A
C376        H395   1.086       .  S
C377        C697   1.447   1_554  S
C377        C378   1.414       .  A
C378        C379   1.422       .  A
C378        C385   1.406   1_554  A
C379        C380   1.421       .  A
C379        C384   1.420       .  A
C380        C381   1.406       .  A
C381        C382   1.394       .  A
C381        H391   1.083       .  S
C382        C383   1.406       .  A
C382        H392   1.083       .  S
C383        C384   1.422       .  A
C383        C390   1.413       .  A
C384        C387   1.422       .  A
C385        C386   1.395       .  A
C385        H393   1.083       .  S
C386        C387   1.406   1_556  A
C386        H394   1.083       .  S
C387        C388   1.414       .  A
C388        C662   1.447   1_554  S
C388        C389   1.396       .  A
C389        C390   1.395       .  A
C389        H396   1.086       .  S
C390        C646   1.448       .  S
C397        C686   1.447       .  S
C397        C398   1.396   1_565  A
C397        C402   1.414       .  A
C398        C399   1.395       .  A
C398        H417   1.086       .  S
C399        C669   1.448       .  S
C399        C400   1.413       .  A
C400        C401   1.422       .  A
C400        C407   1.406       .  A
C401        C402   1.422   1_545  A
C401        C406   1.420       .  A
C402        C403   1.406       .  A
C403        C404   1.395       .  A
C403        H413   1.083       .  S
C404        C405   1.406       .  A
C404        H414   1.083       .  S
C405        C406   1.422   1_565  A
C405        C412   1.414       .  A
C406        C409   1.421       .  A
C407        C408   1.394       .  A
C407        H415   1.083       .  S
C408        C409   1.406       .  A
C408        H416   1.083       .  S
C409        C410   1.413       .  A
C410        C616   1.447       .  S
C410        C411   1.395       .  A
C411        C412   1.395   1_545  A
C411        H418   1.086       .  S
C412        C607   1.447       .  S
C419        C722   1.446       .  S
C419        C420   1.396       .  A
C419        C424   1.413       .  A
C420        C421   1.396       .  A
C420        H439   1.086       .  S
C421        C716   1.446   1_655  S
C421        C422   1.413       .  A
C422        C423   1.421       .  A
C422        C429   1.406   1_655  A
C423        C424   1.421       .  A
C423        C428   1.419       .  A
C424        C425   1.406       .  A
C425        C426   1.394       .  A
C425        H435   1.083       .  S
C426        C427   1.406       .  A
C426        H436   1.083       .  S
C427        C428   1.421       .  A
C427        C434   1.413       .  A
C428        C431   1.421       .  A
C429        C430   1.394       .  A
C429        H437   1.083       .  S
C430        C431   1.406   1_455  A
C430        H438   1.083       .  S
C431        C432   1.413       .  A
C432        C604   1.446   1_655  S
C432        C433   1.395       .  A
C433        C434   1.395       .  A
C433        H440   1.086       .  S
C434        C610   1.446       .  S
C441        C656   1.447       .  S
C441        C442   1.396   1_565  A
C441        C446   1.413       .  A
C442        C443   1.396       .  A
C442        H461   1.086       .  S
C443        C664   1.447       .  S
C443        C444   1.413       .  A
C444        C445   1.421       .  A
C444        C451   1.406       .  A
C445        C446   1.421   1_545  A
C445        C450   1.420       .  A
C446        C447   1.406       .  A
C447        C448   1.395       .  A
C447        H457   1.083       .  S
C448        C449   1.406       .  A
C448        H458   1.083       .  S
C449        C450   1.421   1_565  A
C449        C456   1.413       .  A
C450        C453   1.421       .  A
C451        C452   1.394       .  A
C451        H459   1.083       .  S
C452        C453   1.406       .  A
C452        H460   1.083       .  S
C453        C454   1.413       .  A
C454        C622   1.447       .  S
C454        C455   1.395       .  A
C455        C456   1.396   1_545  A
C455        H462   1.086       .  S
C456        C637   1.447       .  S
C463        C700   1.446   1_655  S
C463        C464   1.395       .  A
C463        C468   1.413       .  A
C464        C465   1.395       .  A
C464        H483   1.086       .  S
C465        C706   1.449       .  S
C465        C466   1.414       .  A
C466        C467   1.422       .  A
C466        C473   1.406       .  A
C467        C468   1.421       .  A
C467        C472   1.420       .  A
C468        C469   1.406   1_655  A
C469        C470   1.395       .  A
C469        H479   1.083       .  S
C470        C471   1.406   1_455  A
C470        H480   1.083       .  S
C471        C472   1.422       .  A
C471        C478   1.414       .  A
C472        C475   1.421       .  A
C473        C474   1.395       .  A
C473        H481   1.083       .  S
C474        C475   1.406       .  A
C474        H482   1.083       .  S
C475        C476   1.414       .  A
C476        C626   1.447       .  S
C476        C477   1.395       .  A
C477        C478   1.395       .  A
C477        H484   1.086       .  S
C478        C619   1.448   1_655  S
C485        C717   1.446       .  S
C485        C486   1.395       .  A
C485        C490   1.413       .  A
C486        C487   1.395       .  A
C486        H505   1.086       .  S
C487        C734   1.448   1_554  S
C487        C488   1.414       .  A
C488        C489   1.422       .  A
C488        C495   1.406   1_554  A
C489        C490   1.421       .  A
C489        C494   1.420       .  A
C490        C491   1.406       .  A
C491        C492   1.394       .  A
C491        H501   1.083       .  S
C492        C493   1.406       .  A
C492        H502   1.083       .  S
C493        C494   1.422       .  A
C493        C500   1.413       .  A
C494        C497   1.421       .  A
C495        C496   1.395       .  A
C495        H503   1.083       .  S
C496        C497   1.406   1_556  A
C496        H504   1.083       .  S
C497        C498   1.413       .  A
C498        C658   1.447   1_554  S
C498        C499   1.396       .  A
C499        C500   1.395       .  A
C499        H506   1.086       .  S
C500        C652   1.447       .  S
C507        C704   1.448   1_554  S
C507        C508   1.395       .  A
C507        C512   1.413       .  A
C508        C509   1.395       .  A
C508        H527   1.086       .  S
C509        C711   1.446       .  S
C509        C510   1.413       .  A
C510        C511   1.421       .  A
C510        C517   1.406       .  A
C511        C512   1.422       .  A
C511        C516   1.420       .  A
C512        C513   1.406   1_554  A
C513        C514   1.395       .  A
C513        H523   1.083       .  S
C514        C515   1.406   1_556  A
C514        H524   1.083       .  S
C515        C516   1.421       .  A
C515        C522   1.413       .  A
C516        C519   1.422       .  A
C517        C518   1.394       .  A
C517        H525   1.083       .  S
C518        C519   1.406       .  A
C518        H526   1.083       .  S
C519        C520   1.413       .  A
C520        C667   1.448       .  S
C520        C521   1.396       .  A
C521        C522   1.396       .  A
C521        H528   1.086       .  S
C522        C674   1.447   1_554  S
C529        C728   1.449       .  S
C529        C530   1.395       .  A
C529        C534   1.414       .  A
C530        C531   1.396       .  A
C530        H549   1.086       .  S
C531        C735   1.448   1_655  S
C531        C532   1.414       .  A
C532        C533   1.422       .  A
C532        C539   1.406   1_655  A
C533        C534   1.422       .  A
C533        C538   1.421       .  A
C534        C535   1.406       .  A
C535        C536   1.395       .  A
C535        H545   1.083       .  S
C536        C537   1.406       .  A
C536        H546   1.083       .  S
C537        C538   1.422       .  A
C537        C544   1.414       .  A
C538        C541   1.422       .  A
C539        C540   1.396       .  A
C539        H547   1.083       .  S
C540        C541   1.406   1_455  A
C540        H548   1.083       .  S
C541        C542   1.414       .  A
C542        C640   1.448   1_655  S
C542        C543   1.395       .  A
C543        C544   1.395       .  A
C543        H550   1.086       .  S
C544        C632   1.448       .  S
C551        C676   1.447       .  S
C551        C552   1.395       .  A
C551        C556   1.413       .  A
C552        C553   1.396   1_545  A
C552        H571   1.086       .  S
C553        C682   1.445       .  S
C553        C554   1.412       .  A
C554        C555   1.421   1_565  A
C554        C561   1.406       .  A
C555        C556   1.422       .  A
C555        C560   1.419       .  A
C556        C557   1.405       .  A
C557        C558   1.394       .  A
C557        H567   1.083       .  S
C558        C559   1.406       .  A
C558        H568   1.083       .  S
C559        C560   1.421       .  A
C559        C566   1.412       .  A
C560        C563   1.422   1_545  A
C561        C562   1.394       .  A
C561        H569   1.083       .  S
C562        C563   1.406       .  A
C562        H570   1.083       .  S
C563        C564   1.413       .  A
C564        C634   1.447       .  S
C564        C565   1.396   1_565  A
C565        C566   1.396       .  A
C565        H572   1.086       .  S
C566        C627   1.446       .  S
C573        C724   1.446       .  S
C573        C574   1.395       .  A
C573        C578   1.413       .  A
C574        C575   1.395       .  A
C574        H593   1.086       .  S
C575        C730   1.448   1_554  S
C575        C576   1.414       .  A
C576        C577   1.422       .  A
C576        C583   1.406   1_554  A
C577        C578   1.421       .  A
C577        C582   1.420       .  A
C578        C579   1.406       .  A
C579        C580   1.394       .  A
C579        H589   1.083       .  S
C580        C581   1.406       .  A
C580        H590   1.083       .  S
C581        C582   1.422       .  A
C581        C588   1.413       .  A
C582        C585   1.421       .  A
C583        C584   1.395       .  A
C583        H591   1.083       .  S
C584        C585   1.406   1_556  A
C584        H592   1.083       .  S
C585        C586   1.413       .  A
C586        C680   1.447   1_554  S
C586        C587   1.396       .  A
C587        C588   1.395       .  A
C587        H594   1.086       .  S
C588        C688   1.447       .  S
C595        C596   1.207       .  T
C597        C598   1.208       .  T
C599        C600   1.208       .  T
C601        C602   1.207       .  T
C603        C604   1.207       .  T
C605        C606   1.208       .  T
C607        C608   1.207       .  T
C609        C610   1.207       .  T
C611        C612   1.208       .  T
C613        C614   1.206       .  T
C615        C616   1.207       .  T
C617        C618   1.207       .  T
C619        C620   1.208       .  T
C621        C622   1.207       .  T
C623        C624   1.208       .  T
C625        C626   1.207       .  T
C627        C628   1.206       .  T
C629        C630   1.207       .  T
C631        C632   1.208       .  T
C633        C634   1.207       .  T
C635        C636   1.207       .  T
C637        C638   1.207       .  T
C639        C640   1.208       .  T
C641        C642   1.208       .  T
C643        C644   1.208       .  T
C645        C646   1.208       .  T
C647        C648   1.208       .  T
C649        C650   1.208       .  T
C651        C652   1.207       .  T
C653        C654   1.209       .  T
C655        C656   1.207       .  T
C657        C658   1.207       .  T
C659        C660   1.207       .  T
C661        C662   1.207       .  T
C663        C664   1.207       .  T
C665        C666   1.207       .  T
C667        C668   1.207       .  T
C669        C670   1.208       .  T
C671        C672   1.208       .  T
C673        C674   1.207       .  T
C675        C676   1.207       .  T
C677        C678   1.207       .  T
C679        C680   1.207       .  T
C681        C682   1.206       .  T
C683        C684   1.206       .  T
C685        C686   1.207       .  T
C687        C688   1.207       .  T
C689        C690   1.208       .  T
C691        C692   1.206       .  T
C693        C694   1.207       .  T
C695        C696   1.207       .  T
C697        C698   1.207       .  T
C699        C700   1.207       .  T
C701        C702   1.208       .  T
C703        C704   1.208       .  T
C705        C706   1.208       .  T
C707        C708   1.208       .  T
C709        C710   1.207       .  T
C711        C712   1.206       .  T
C713        C714   1.207       .  T
C715        C716   1.206       .  T
C717        C718   1.206       .  T
C719        C720   1.207       .  T
C721        C722   1.207       .  T
C723        C724   1.207       .  T
C725        C726   1.207       .  T
C727        C728   1.208       .  T
C729        C730   1.207       .  T
C731        C732   1.208       .  T
C733        C734   1.208       .  T
C735        C736   1.208       .  T
C737        C738   1.209       .  T
