geometry optimzed in LAMMPS
_audit_creation_date              2020-12-01 
_audit_creation_method            'lammps2cif' 
_symmetry_space_group_name_H-M    'P1' 
_symmetry_Int_Tables_number       1 
_symmetry_cell_setting            triclinic 
loop_ 
_symmetry_equiv_pos_as_xyz 
  x,y,z 
_cell_length_a                    40.88996354 
_cell_length_b                    41.08346330476222 
_cell_length_c                    38.218658819991745 
_cell_angle_alpha                 90.62430984494995 
_cell_angle_beta                  89.7494209283156 
_cell_angle_gamma                 119.27071346745167 
loop_ 
_atom_site_label 
_atom_site_type_symbol 
_atom_site_fract_x 
_atom_site_fract_y 
_atom_site_fract_z 
_atom_site_charge 
O1          O  0.77534215  0.89515893  0.44196889    -0.72100
O2          O  0.73463818  0.95824030  0.41897633    -0.72300
O3          O  0.78659129  0.96193080  0.46395083    -0.72200
O4          O  0.72405535  0.89172012  0.39651727    -0.72200
O5          O  0.67945880  0.86607193  0.43465182    -0.72200
O6          O  0.74512859  0.93406067  0.50453279    -0.72200
O7          O  0.69380586  0.93318045  0.46074535    -0.72100
O8          O  0.72986799  0.86637338  0.47904342    -0.72300
V9          V  0.75432912  0.92628849  0.43115032     1.35200
V10         V  0.71286341  0.90039876  0.46901959     1.35200
C11         C  0.75857305  0.86927254  0.46381611     0.77100
C12         C  0.70768830  0.95676536  0.43662712     0.77200
C13         C  0.77711851  0.96016906  0.49564983     0.77100
C14         C  0.69103511  0.86693207  0.40362621     0.77000
O15         O  0.57101399  0.10939467  0.41625120    -0.72100
O16         O  0.63329396  0.06552262  0.43012608    -0.72300
O17         O  0.63518891  0.11872744  0.38860604    -0.72200
O18         O  0.56925422  0.05698050  0.45846105    -0.72200
O19         O  0.53667631  0.01485227  0.41953764    -0.72200
O20         O  0.60500342  0.07618299  0.34895518    -0.72200
O21         O  0.60084430  0.02297963  0.39127822    -0.72100
O22         O  0.54032293  0.06725614  0.37636099    -0.72300
V23         V  0.60160322  0.08677372  0.42261874     1.35200
V24         V  0.57127608  0.04610002  0.38481339     1.35200
C25         C  0.54523275  0.09566246  0.39352807     0.77100
C26         C  0.62779280  0.03689760  0.41262095     0.77200
C27         C  0.63181948  0.10809165  0.35711150     0.77100
C28         C  0.54108857  0.02587981  0.45115566     0.77000
O29         O  0.07280755  0.19311788  0.93344140    -0.72100
O30         O  0.01065119  0.23551296  0.91201353    -0.72300
O31         O  0.07645958  0.24390818  0.88762687    -0.72200
O32         O  0.00743367  0.18448748  0.95714536    -0.72200
O33         O  0.03780817  0.22772946  0.99621667    -0.72200
O34         O  0.10523038  0.28863524  0.92540299    -0.72200
O35         O  0.03945264  0.27799972  0.95196492    -0.72100
O36         O  0.10376362  0.23864853  0.97033835    -0.72300
V37         V  0.04245315  0.21516596  0.92319559     1.35200
V38         V  0.07106491  0.25742688  0.96017020     1.35200
C39         C  0.09884171  0.20895846  0.95568578     0.77100
C40         C  0.01370198  0.26329124  0.92940599     0.77200
C41         C  0.10291878  0.27632309  0.89448247     0.77100
C42         C  0.01060349  0.19604751  0.98833378     0.77000
O43         O  0.85748110  0.39838376  0.91780104    -0.72100
O44         O  0.89922673  0.33434054  0.93319361    -0.72300
O45         O  0.91065963  0.39988048  0.95992823    -0.72200
O46         O  0.84524089  0.33230736  0.89166561    -0.72200
O47         O  0.88608333  0.36147455  0.85089324    -0.72200
O48         O  0.95314574  0.42834725  0.92028765    -0.72200
O49         O  0.93941022  0.36242101  0.89160258    -0.72100
O50         O  0.90072346  0.42802174  0.87891821    -0.72300
V51         V  0.87893777  0.36674741  0.92485925     1.35200
V52         V  0.91899995  0.39450544  0.88620015     1.35200
C53         C  0.87287811  0.42468142  0.89607566     0.77100
C54         C  0.92632394  0.33745853  0.91457556     0.77200
C55         C  0.94290005  0.42574820  0.95199031     0.77100
C56         C  0.85440615  0.33487079  0.85980205     0.77000
O57         O  0.19217241  0.07164544  0.57893549    -0.72100
O58         O  0.23293988  0.00743730  0.60009248    -0.72300
O59         O  0.24227017  0.07294300  0.62560238    -0.72200
O60         O  0.18203276  0.00592710  0.55444356    -0.72200
O61         O  0.22578447  0.03575401  0.51608595    -0.72200
O62         O  0.28771861  0.10129420  0.58862673    -0.72200
O63         O  0.27573131  0.03570596  0.56056607    -0.72100
O64         O  0.23851364  0.10192245  0.54310218    -0.72300
V65         V  0.21321494  0.04005353  0.58910533     1.35200
V66         V  0.25605613  0.06815495  0.55288685     1.35200
C67         C  0.20887153  0.09788182  0.55726498     0.77100
C68         C  0.26098996  0.01036716  0.58307397     0.77200
C69         C  0.27525475  0.09850641  0.61953973     0.77100
C70         C  0.19356777  0.00909816  0.52333491     0.77000
O71         O  0.40970308  0.86675530  0.60174577    -0.72100
O72         O  0.34247611  0.90474628  0.58382201    -0.72300
O73         O  0.40840344  0.91575667  0.55696114    -0.72200
O74         O  0.34360859  0.85461717  0.62785042    -0.72200
O75         O  0.37150802  0.89922490  0.66622880    -0.72200
O76         O  0.43912890  0.95987887  0.59481697    -0.72200
O77         O  0.37306340  0.94934725  0.62145961    -0.72100
O78         O  0.43829038  0.91082989  0.64046042    -0.72300
V79         V  0.37658770  0.88636711  0.59332261     1.35200
V80         V  0.40495225  0.92897635  0.62999352     1.35200
C81         C  0.43584142  0.88294424  0.62396446     0.77100
C82         C  0.34614539  0.93341456  0.60017733     0.77200
C83         C  0.43570011  0.94763514  0.56367455     0.77100
C84         C  0.34570818  0.86651813  0.65875747     0.77000
O85         O  0.44644271  0.23346749  0.76610438    -0.72100
O86         O  0.40517415  0.29768166  0.74820871    -0.72300
O87         O  0.45702994  0.29888259  0.79241716    -0.72200
O88         O  0.39567258  0.23257286  0.72143235    -0.72200
O89         O  0.35124571  0.20292418  0.75903412    -0.72200
O90         O  0.41365530  0.26904723  0.83111873    -0.72200
O91         O  0.36250165  0.26827450  0.78751741    -0.72100
O92         O  0.40153791  0.20321112  0.80331338    -0.72300
V93         V  0.42523730  0.26513909  0.75778738     1.35200
V94         V  0.38311537  0.23643911  0.79450257     1.35200
C95         C  0.43007153  0.20672549  0.78725734     0.77100
C96         C  0.37691762  0.29403148  0.76532897     0.77200
C97         C  0.44582418  0.29566366  0.82364090     0.77100
C98         C  0.36330262  0.20608835  0.72792116     0.77000
O99         O  0.23266620  0.44176530  0.74289625    -0.72100
O100        O  0.29831826  0.40242953  0.76275745    -0.72300
O101        O  0.29822454  0.45222660  0.71737346    -0.72200
O102        O  0.23280346  0.39259003  0.78894513    -0.72200
O103        O  0.20372055  0.34713789  0.75187467    -0.72200
O104        O  0.26799769  0.40797560  0.67915418    -0.72200
O105        O  0.26922030  0.35899513  0.72364816    -0.72100
O106        O  0.20183637  0.39545447  0.70681407    -0.72300
V107        V  0.26494424  0.42138376  0.75230006     1.35200
V108        V  0.23623003  0.37828900  0.71612539     1.35200
C109        C  0.20575818  0.42477127  0.72159515     0.77100
C110        C  0.29513371  0.37418191  0.74600969     0.77200
C111        C  0.29453495  0.44033202  0.68626288     0.77100
C112        C  0.20697823  0.35968542  0.78283819     0.77000
O113        O  0.73426001  0.52980256  0.26427007    -0.72100
O114        O  0.66729850  0.56884279  0.25128945    -0.72300
O115        O  0.73164400  0.57946309  0.22083469    -0.72200
O116        O  0.66996803  0.51863751  0.29396162    -0.72200
O117        O  0.70072809  0.56316877  0.33177354    -0.72200
O118        O  0.76409694  0.62344200  0.25841925    -0.72200
O119        O  0.69994571  0.61311342  0.28856810    -0.72100
O120        O  0.76545156  0.57416775  0.30213388    -0.72300
V121        V  0.70138002  0.55005817  0.25826378     1.35200
V122        V  0.73194727  0.59259705  0.29444653     1.35200
C123        C  0.76148897  0.54585639  0.28537402     0.77100
C124        C  0.67198900  0.59743146  0.26841304     0.77200
C125        C  0.75910762  0.61139299  0.22714347     0.77100
C126        C  0.67416783  0.53072793  0.32504078     0.77000
O127        O  0.52085212  0.73775550  0.25022853    -0.72100
O128        O  0.56091498  0.67349550  0.27197041    -0.72300
O129        O  0.57062784  0.73930377  0.29697338    -0.72200
O130        O  0.51066148  0.67158508  0.22601629    -0.72200
O131        O  0.55474300  0.70072809  0.18778411    -0.72200
O132        O  0.61599023  0.76752704  0.25995823    -0.72200
O133        O  0.60454541  0.70190017  0.23312562    -0.72100
O134        O  0.56692905  0.76736808  0.21394458    -0.72300
V135        V  0.54161534  0.70610962  0.26058675     1.35200
V136        V  0.58463123  0.73388025  0.22443103     1.35200
C137        C  0.53775160  0.76394948  0.22862759     0.77100
C138        C  0.58931130  0.67661201  0.25559177     0.77200
C139        C  0.60354257  0.76505359  0.29081630     0.77100
C140        C  0.52248879  0.67409835  0.19505611     0.77000
O141        O  0.11516766  0.56841239  0.09148937    -0.72100
O142        O  0.06854951  0.62894883  0.07987367    -0.72300
O143        O  0.12378893  0.63222308  0.12026033    -0.72200
O144        O  0.06084783  0.56545808  0.05028737    -0.72200
O145        O  0.02082643  0.53148958  0.08984423    -0.72200
O146        O  0.08159499  0.60256881  0.15988561    -0.72200
O147        O  0.02609921  0.59450797  0.11745836    -0.72100
O148        O  0.07521727  0.53858170  0.13282848    -0.72300
V149        V  0.09129056  0.59819035  0.08622215     1.35200
V150        V  0.05174789  0.56741334  0.12425922     1.35200
C151        C  0.10273214  0.54310456  0.11439825     0.77100
C152        C  0.03905209  0.62175738  0.09682032     0.77200
C153        C  0.11337646  0.62952407  0.15172814     0.77100
C154        C  0.03070011  0.53646855  0.05795778     0.77000
O155        O  0.90115506  0.77608926  0.08450820    -0.72100
O156        O  0.96343019  0.73217520  0.10034933    -0.72300
O157        O  0.96564762  0.78485794  0.05785740    -0.72200
O158        O  0.89880839  0.72412806  0.12776712    -0.72200
O159        O  0.86499132  0.68279863  0.08862718    -0.72200
O160        O  0.93719447  0.74086680  0.01908329    -0.72200
O161        O  0.92888631  0.68738816  0.06405917    -0.72100
O162        O  0.87245315  0.73491101  0.04334866    -0.72300
V163        V  0.93170590  0.75344628  0.09192018     1.35200
V164        V  0.90153922  0.71231190  0.05447520     1.35200
C165        C  0.87620741  0.76264633  0.06096177     0.77100
C166        C  0.95615847  0.70184831  0.08503468     0.77200
C167        C  0.96343851  0.77329680  0.02678626     0.77100
C168        C  0.86969104  0.69387232  0.12024657     0.77000
O169        O  0.44443960  0.85951345  0.09871042    -0.72100
O170        O  0.54919318  0.90324970  0.07836665    -0.72300
O171        O  0.50155560  0.85313146  0.12443609    -0.72200
O172        O  0.49106213  0.90869092  0.05175704    -0.72200
O173        O  0.50411669  0.95454040  0.08781691    -0.72200
O174        O  0.51263425  0.89744637  0.16200506    -0.72200
O175        O  0.56050950  0.94716322  0.11636014    -0.72100
O176        O  0.45685932  0.90584208  0.13424068    -0.72300
V177        V  0.49690822  0.88209921  0.08897542     1.35200
V178        V  0.50834304  0.92544381  0.12432602     1.35200
C179        C  0.43313809  0.87552958  0.12020116     0.77100
C180        C  0.57276926  0.93246123  0.09455094     0.77200
C181        C  0.50819679  0.86522162  0.15552058     0.77100
C182        C  0.49520940  0.94081661  0.05716934     0.77000
O183        O  0.86240839  0.07109544  0.07437343    -0.72100
O184        O  0.75774857  0.00866513  0.09291877    -0.72300
O185        O  0.80796018  0.00561170  0.04908315    -0.72200
O186        O  0.81252892  0.07355073  0.11876125    -0.72200
O187        O  0.79694342  0.10225519  0.08062437    -0.72200
O188        O  0.79573484  0.03578104  0.00951731    -0.72200
O189        O  0.74473706  0.03710124  0.05221474    -0.72100
O190        O  0.84797644  0.10171155  0.03722118    -0.72300
V191        V  0.80989210  0.04025237  0.08301704     1.35200
V192        V  0.79672215  0.06869304  0.04564028     1.35200
C193        C  0.87280765  0.09770125  0.05298647     0.77100
C194        C  0.73349278  0.01215977  0.07519982     0.77200
C195        C  0.80064455  0.00869077  0.01767541     0.77100
C196        C  0.80565343  0.09956559  0.11182888     0.77000
O197        O  0.77292079  0.23488844  0.26340150    -0.72100
O198        O  0.87583387  0.29815273  0.23837675    -0.72300
O199        O  0.81976131  0.23180525  0.21601805    -0.72200
O200        O  0.82812485  0.30160233  0.28495981    -0.72200
O201        O  0.84592566  0.27493081  0.32342994    -0.72200
O202        O  0.83639077  0.20333823  0.25349685    -0.72200
O203        O  0.89211844  0.26987727  0.27657211    -0.72100
O204        O  0.79077378  0.20750201  0.30113034    -0.72300
V205        V  0.82455518  0.26610990  0.25143143     1.35200
V206        V  0.84097598  0.23946141  0.28793955     1.35200
C207        C  0.76461525  0.20999755  0.28633064     0.77100
C208        C  0.90143427  0.29475252  0.25373072     0.77200
C209        C  0.82560704  0.20513348  0.22284667     0.77100
C210        C  0.83861103  0.30065433  0.31570160     0.77000
O211        O  0.19080759  0.43783210  0.24107785    -0.72100
O212        O  0.08470334  0.39707150  0.25176837    -0.72300
O213        O  0.13813752  0.38637037  0.28250818    -0.79400
O214        O  0.13837821  0.44941209  0.21152397    -0.72200
O215        O  0.12743891  0.40694331  0.17195028    -0.72200
O216        O  0.12943411  0.34381672  0.24396903    -0.72200
O217        O  0.07574452  0.35435237  0.21331735    -0.72100
O218        O  0.18028722  0.39502462  0.20191477    -0.72300
V219        V  0.13769447  0.41675572  0.24600524     1.35200
V220        V  0.12832871  0.37580474  0.20855979     1.35200
C221        C  0.20331952  0.42305694  0.21940386     0.77100
C222        C  0.06203168  0.36881429  0.23380695     0.77200
C223        C  0.13525792  0.35497310  0.27558112     0.77100
C224        C  0.13303772  0.43934616  0.17983705     0.77000
O225        O  0.11171923  0.19486461  0.42544173    -0.72100
O226        O  0.21733099  0.23756912  0.40905402    -0.72300
O227        O  0.16699561  0.18556950  0.45213281    -0.72200
O228        O  0.16107564  0.24596408  0.38123890    -0.72200
O229        O  0.17069893  0.28910318  0.41942629    -0.72200
O230        O  0.17982642  0.22932177  0.49082242    -0.72200
O231        O  0.22736226  0.28123561  0.44688721    -0.72100
O232        O  0.12367845  0.23833405  0.46429269    -0.72300
V233        V  0.16457169  0.21692628  0.41760423     1.35200
V234        V  0.17519792  0.25869471  0.45454462     1.35200
C235        C  0.10008252  0.20953494  0.44811028     0.77100
C236        C  0.24039714  0.26630157  0.42622334     0.77200
C237        C  0.17473787  0.19699919  0.48336511     0.77100
C238        C  0.16361173  0.27726296  0.38806890     0.77000
O239        O  0.53043636  0.40333387  0.41440712    -0.72100
O240        O  0.42553331  0.33719002  0.42958986    -0.72300
O241        O  0.47847682  0.33842343  0.38653085    -0.72200
O242        O  0.47831891  0.40151167  0.45854482    -0.72200
O243        O  0.46404300  0.43217474  0.42135794    -0.72200
O244        O  0.46493256  0.36855072  0.34801388    -0.72200
O245        O  0.41271693  0.36753359  0.39069380    -0.72100
O246        O  0.51556904  0.43392389  0.37757286    -0.72300
V247        V  0.47785529  0.37064853  0.42154819     1.35200
V248        V  0.46458593  0.39995478  0.38517239     1.35200
C249        C  0.54051206  0.43028454  0.39342370     0.77100
C250        C  0.40138982  0.34108843  0.41203901     0.77200
C251        C  0.47158988  0.34229882  0.35523392     0.77100
C252        C  0.47200308  0.42799557  0.45245971     0.77000
O253        O  0.44296426  0.56340684  0.60020328    -0.72100
O254        O  0.54840331  0.62642361  0.58565020    -0.72300
O255        O  0.49425171  0.56291103  0.55660339    -0.72200
O256        O  0.49631384  0.62732033  0.62840091    -0.72200
O257        O  0.50829110  0.59618609  0.66706785    -0.72200
O258        O  0.50630587  0.53083319  0.59405002    -0.72200
O259        O  0.55952706  0.59473336  0.62434053    -0.72100
O260        O  0.45576541  0.53166985  0.63753550    -0.72300
V261        V  0.49580260  0.59445199  0.59344958     1.35200
V262        V  0.50726758  0.56398623  0.63000584     1.35200
C263        C  0.43170465  0.53631433  0.62113902     0.77100
C264        C  0.57190621  0.62137127  0.60304576     0.77200
C265        C  0.49899089  0.53545973  0.56286509     0.77100
C266        C  0.50277618  0.62315016  0.65976727     0.77000
O267        O  0.86126879  0.77593870  0.58649918    -0.72100
O268        O  0.75642169  0.73076447  0.60639812    -0.72300
O269        O  0.81450740  0.72457957  0.63203544    -0.72200
O270        O  0.80411780  0.78269168  0.56178172    -0.72200
O271        O  0.79366088  0.73969811  0.52280337    -0.72200
O272        O  0.80191680  0.68012758  0.59436490    -0.72200
O273        O  0.74562580  0.68842187  0.56669402    -0.72100
O274        O  0.84949352  0.73082895  0.54961505    -0.72300
V275        V  0.80877757  0.75256303  0.59602104     1.35200
V276        V  0.79789740  0.71056564  0.55918118     1.35200
C277        C  0.87292073  0.76078766  0.56442639     0.77100
C278        C  0.73315086  0.70236394  0.58906898     0.77200
C279        C  0.81048653  0.69267814  0.62538650     0.77100
C280        C  0.79744788  0.77139849  0.53047661     0.77000
O281        O  0.78230230  0.52738830  0.76955664    -0.72100
O282        O  0.88704595  0.56579437  0.75311305    -0.72300
O283        O  0.83551618  0.51549137  0.79672046    -0.72200
O284        O  0.83271785  0.57687767  0.72533720    -0.72200
O285        O  0.84721032  0.62186774  0.76285882    -0.72200
O286        O  0.84734427  0.55891168  0.83556508    -0.72200
O287        O  0.89947315  0.60850594  0.79277395    -0.72100
O288        O  0.79582600  0.57315001  0.80612301    -0.72300
V289        V  0.83478041  0.54730712  0.76188403     1.35200
V290        V  0.84727548  0.58979243  0.79856760     1.35200
C291        C  0.77146923  0.54426688  0.79048125     0.77100
C292        C  0.91114355  0.59346770  0.77070607     0.77200
C293        C  0.84134362  0.52631162  0.82821873     0.77100
C294        C  0.83848764  0.60944403  0.73181057     0.77000
O295        O  0.20025355  0.73841539  0.74599373    -0.72100
O296        O  0.09706325  0.67404236  0.76895398    -0.72300
O297        O  0.14583940  0.67191347  0.72258203    -0.72200
O298        O  0.15222162  0.74060303  0.79282231    -0.72200
O299        O  0.13313512  0.76734471  0.75576082    -0.72200
O300        O  0.13105489  0.70094472  0.68395761    -0.72200
O301        O  0.08104809  0.70079355  0.72899274    -0.72100
O302        O  0.18312637  0.76801536  0.71017845    -0.72300
V303        V  0.14847793  0.70674618  0.75688952     1.35200
V304        V  0.13246324  0.73376808  0.72047677     1.35200
C305        C  0.20907920  0.76475279  0.72459950     0.77100
C306        C  0.07146649  0.67594046  0.75196642     0.77200
C307        C  0.13729060  0.67449169  0.69140510     0.77100
C308        C  0.14403548  0.76588060  0.78641378     0.77000
O309        O  0.52471120  0.10251114  0.90886104    -0.72100
O310        O  0.42069472  0.06689838  0.92758335    -0.72300
O311        O  0.47453907  0.05458400  0.95406058    -0.72200
O312        O  0.47176252  0.11601694  0.88303837    -0.72200
O313        O  0.45821049  0.07213889  0.84427523    -0.72200
O314        O  0.45762675  0.00866360  0.91717886    -0.72200
O315        O  0.40616883  0.02370839  0.88792489    -0.72100
O316        O  0.50892491  0.05602017  0.87274884    -0.72300
V317        V  0.47253216  0.08409676  0.91764940     1.35200
V318        V  0.45799769  0.04097201  0.88125521     1.35200
C319        C  0.53435282  0.08464823  0.88786235     0.77100
C320        C  0.39573001  0.03940714  0.91042185     0.77200
C321        C  0.46716954  0.02146335  0.94806490     0.77100
C322        C  0.46499686  0.10502480  0.85165136     0.77000
O323        O  0.10634774  0.90101082  0.93494335    -0.72100
O324        O  0.21035250  0.96499031  0.91379718    -0.72300
O325        O  0.15533405  0.89904447  0.88893953    -0.72200
O326        O  0.16034882  0.96698804  0.95907883    -0.72200
O327        O  0.17361725  0.93725842  0.99818303    -0.72200
O328        O  0.17336165  0.87166533  0.92633363    -0.72200
O329        O  0.22487490  0.93753348  0.95421467    -0.72100
O330        O  0.12250783  0.87081692  0.97103600    -0.72300
V331        V  0.15846195  0.93251684  0.92487491     1.35200
V332        V  0.17329663  0.90488505  0.96166551     1.35200
C333        C  0.09703137  0.87466338  0.95647007     0.77100
C334        C  0.23538202  0.96238140  0.93115404     0.77200
C335        C  0.16328632  0.87365012  0.89545511     0.77100
C336        C  0.16718907  0.96357002  0.99059211     0.77000
O337        O  0.57238751  0.44039556  0.91458122    -0.72100
O338        O  0.63746291  0.54401578  0.93477307    -0.72300
O339        O  0.57268007  0.48991189  0.96146143    -0.72200
O340        O  0.63740300  0.49397189  0.88869144    -0.72200
O341        O  0.60768488  0.51000519  0.85171096    -0.72200
O342        O  0.54120964  0.50394980  0.92482492    -0.72200
O343        O  0.60574496  0.55798550  0.89817290    -0.72100
O344        O  0.54216819  0.45602440  0.87783043    -0.72300
V345        V  0.60443167  0.49239052  0.92417963     1.35200
V346        V  0.57480941  0.50664479  0.88883639     1.35200
C347        C  0.54594199  0.43082475  0.89273723     0.77100
C348        C  0.63230705  0.56848055  0.91970143     0.77200
C349        C  0.54554643  0.49561309  0.95565317     0.77100
C350        C  0.63413150  0.50324894  0.85810631     0.77000
O351        O  0.77233372  0.85642517  0.93448490    -0.72100
O352        O  0.73396624  0.75175664  0.92034385    -0.72300
O353        O  0.72102835  0.80420814  0.89217407    -0.72200
O354        O  0.78600879  0.80471229  0.96185977    -0.72200
O355        O  0.74350789  0.79222803  0.00164580    -0.72200
O356        O  0.67802867  0.79311667  0.93086550    -0.72200
O357        O  0.69132575  0.74085215  0.95937016    -0.72100
O358        O  0.72917962  0.84407629  0.97362286    -0.72300
V359        V  0.75244159  0.80398565  0.92795547     1.35200
V360        V  0.71132565  0.79276283  0.96564475     1.35200
C361        C  0.75677472  0.86780441  0.95639143     0.77100
C362        C  0.70613427  0.72834581  0.93790828     0.77200
C363        C  0.68886281  0.79952415  0.89931799     0.77100
C364        C  0.77616359  0.79851922  0.99345850     0.77000
O365        O  0.73180509  0.18796233  0.76489127    -0.72100
O366        O  0.67378969  0.08248045  0.74804887    -0.72300
O367        O  0.66937615  0.13165195  0.79204835    -0.72200
O368        O  0.73593233  0.13928363  0.71977893    -0.72200
O369        O  0.77206621  0.13333272  0.75750362    -0.72200
O370        O  0.70074673  0.11786937  0.82922816    -0.72200
O371        O  0.71087680  0.07426288  0.78289285    -0.72100
O372        O  0.76313604  0.17711524  0.80455841    -0.72300
V373        V  0.70338232  0.13515382  0.75683886     1.35200
V374        V  0.73608394  0.12590178  0.79284080     1.35200
C375        C  0.75700351  0.20012807  0.78831720     0.77100
C376        C  0.68305059  0.06050808  0.76253966     0.77200
C377        C  0.67288084  0.12231907  0.82250521     0.77100
C378        C  0.76576158  0.13846002  0.72614463     0.77000
O379        O  0.52503562  0.77221401  0.74842793    -0.72100
O380        O  0.57078194  0.87785490  0.76314262    -0.72300
O381        O  0.51805439  0.82803592  0.71992984    -0.72200
O382        O  0.57702121  0.82157778  0.79257515    -0.72200
O383        O  0.61807933  0.82526577  0.75450220    -0.72200
O384        O  0.56349940  0.84235919  0.68293300    -0.72200
O385        O  0.61652050  0.88517193  0.72919146    -0.72100
O386        O  0.56625088  0.78221799  0.70783963    -0.72300
V387        V  0.54852097  0.82510064  0.75535409     1.35200
V388        V  0.59021378  0.83351799  0.71926797     1.35200
C389        C  0.53821072  0.75953534  0.72528185     0.77100
C390        C  0.60186689  0.89947154  0.74868820     0.77200
C391        C  0.53112625  0.83779367  0.68954429     0.77100
C392        C  0.60707228  0.82107427  0.78600708     0.77000
O393        O  0.90625385  0.10983962  0.58167645    -0.72100
O394        O  0.96611978  0.21541543  0.59688459    -0.72300
O395        O  0.90289839  0.16015740  0.62447285    -0.72200
O396        O  0.97032810  0.16449206  0.55489215    -0.72200
O397        O  0.93814867  0.17342686  0.51488980    -0.72200
O398        O  0.87078141  0.17121702  0.58606088    -0.72200
O399        O  0.93450653  0.22458157  0.55643779    -0.72100
O400        O  0.87343510  0.12058382  0.54357976    -0.72300
V401        V  0.93581545  0.16272895  0.58871092     1.35200
V402        V  0.90484186  0.17226730  0.55099119     1.35200
C403        C  0.87918714  0.09753319  0.56017645     0.77100
C404        C  0.96050032  0.23798904  0.57882730     0.77200
C405        C  0.87518869  0.16446032  0.61751030     0.77100
C406        C  0.96606272  0.16950777  0.52316263     0.77000
O407        O  0.11057502  0.52707019  0.59657034    -0.72100
O408        O  0.06497402  0.42240816  0.57562072    -0.72300
O409        O  0.05845005  0.48037774  0.55091152    -0.72200
O410        O  0.11805293  0.46988868  0.62027713    -0.72200
O411        O  0.07633445  0.46091685  0.65993077    -0.72200
O412        O  0.01373012  0.46634576  0.58849136    -0.72200
O413        O  0.02396466  0.41165094  0.61650127    -0.72100
O414        O  0.06511906  0.51529411  0.63285235    -0.72300
V415        V  0.08711486  0.47464375  0.58653230     1.35200
V416        V  0.04558372  0.46377944  0.62367085     1.35200
C417        C  0.09496346  0.53878201  0.61814806     0.77100
C418        C  0.03722428  0.39916530  0.59345506     0.77200
C419        C  0.02610549  0.47548141  0.55757731     0.77100
C420        C  0.10791197  0.46416176  0.65184322     0.77000
O421        O  0.86261900  0.44800605  0.40734127    -0.72100
O422        O  0.90063675  0.55150225  0.42853159    -0.72300
O423        O  0.85066967  0.50202976  0.38293636    -0.72200
O424        O  0.91164088  0.49634668  0.45379236    -0.72200
O425        O  0.95719868  0.51205942  0.41683598    -0.72200
O426        O  0.89479004  0.51594007  0.34452682    -0.72200
O427        O  0.94421796  0.56533974  0.38960876    -0.72100
O428        O  0.90863648  0.46307305  0.37083707    -0.72300
V429        V  0.88233406  0.49985384  0.41747479     1.35200
V430        V  0.92539261  0.51383902  0.38123270     1.35200
C431        C  0.87964068  0.43819289  0.38555095     0.77100
C432        C  0.92850372  0.57606822  0.41179430     0.77200
C433        C  0.86197808  0.50974945  0.35180724     0.77100
C434        C  0.94443148  0.50229794  0.44753793     0.77000
O435        O  0.06765578  0.86396290  0.43294726    -0.72100
O436        O  0.00343285  0.76032145  0.41235127    -0.72300
O437        O  0.00226987  0.81025067  0.45788168    -0.72200
O438        O  0.06878216  0.81471939  0.38669145    -0.72200
O439        O  0.09712753  0.79715360  0.42340874    -0.72200
O440        O  0.03378178  0.79816848  0.49631567    -0.72200
O441        O  0.03194211  0.74645916  0.45244674    -0.72100
O442        O  0.09956664  0.84868812  0.46798540    -0.72300
V443        V  0.03607777  0.81199399  0.42312145     1.35200
V444        V  0.06505152  0.79793564  0.45928178     1.35200
C445        C  0.09493090  0.87371986  0.45382734     0.77100
C446        C  0.00638293  0.73574499  0.42973220     0.77200
C447        C  0.00661722  0.80358197  0.48916261     0.77100
C448        C  0.09452256  0.80694101  0.39270466     0.77000
O449        O  0.44674401  0.19296459  0.26728629    -0.72100
O450        O  0.40362683  0.08779046  0.25171270    -0.72300
O451        O  0.39448837  0.14283569  0.22410280    -0.72200
O452        O  0.45675051  0.13868116  0.29432044    -0.72200
O453        O  0.41419420  0.12793387  0.33367066    -0.72200
O454        O  0.35150368  0.13250057  0.26266136    -0.72200
O455        O  0.36138998  0.07811384  0.29091832    -0.72100
O456        O  0.40342831  0.18194802  0.30589445    -0.72300
V457        V  0.42455907  0.14029136  0.26010231     1.35200
V458        V  0.38347305  0.13033642  0.29752576     1.35200
C459        C  0.43181418  0.20509489  0.28912816     0.77100
C460        C  0.37504146  0.06498030  0.26886910     0.77200
C461        C  0.36265671  0.13902790  0.23124533     0.77100
C462        C  0.44622477  0.13243255  0.32576682     0.77000
O463        O  0.23395703  0.77648275  0.24477906    -0.72100
O464        O  0.29440404  0.88028187  0.26707443    -0.72300
O465        O  0.22891233  0.82405734  0.28996506    -0.72200
O466        O  0.29971021  0.83198662  0.22251204    -0.72200
O467        O  0.26990607  0.84369348  0.18210263    -0.72200
O468        O  0.20040002  0.83981584  0.25165415    -0.72200
O469        O  0.26666092  0.89355635  0.22574502    -0.72100
O470        O  0.20323510  0.79067992  0.20726844    -0.72300
V471        V  0.26371414  0.82855304  0.25532699     1.35200
V472        V  0.23560295  0.84172218  0.21745694     1.35200
C473        C  0.20773992  0.76611444  0.22257522     0.77100
C474        C  0.29122497  0.90459215  0.24949733     0.77200
C475        C  0.20223164  0.82994132  0.28260290     0.77100
C476        C  0.29704691  0.83875977  0.19085430     0.77000
O477        O  0.19265337  0.10975875  0.08740078    -0.72100
O478        O  0.24021110  0.21569383  0.10083931    -0.72300
O479        O  0.18528558  0.16540520  0.05986947    -0.72200
O480        O  0.24721439  0.15943634  0.12942268    -0.72200
O481        O  0.28838486  0.16610197  0.09009123    -0.72200
O482        O  0.22678243  0.17408361  0.02006481    -0.72200
O483        O  0.28175368  0.22230452  0.06194974    -0.72100
O484        O  0.23420237  0.11813195  0.04764954    -0.72300
V485        V  0.21720901  0.16277257  0.09371259     1.35200
V486        V  0.25697412  0.17000336  0.05574328     1.35200
C487        C  0.20554373  0.09624210  0.06480821     0.77100
C488        C  0.26899878  0.23710108  0.08313398     0.77200
C489        C  0.19544080  0.17113824  0.02829931     0.77100
C490        C  0.27801247  0.16100223  0.12175739     0.77000
O491        O  0.40683138  0.52561509  0.10198288    -0.72100
O492        O  0.34307165  0.42154114  0.08313969    -0.72300
O493        O  0.34176935  0.47210068  0.12731120    -0.72200
O494        O  0.40817538  0.47572658  0.05678287    -0.72200
O495        O  0.44078473  0.46509527  0.09501389    -0.72200
O496        O  0.36981250  0.45534382  0.16541376    -0.72200
O497        O  0.37622490  0.40903639  0.11931476    -0.72100
O498        O  0.43565568  0.51135639  0.14153538    -0.72300
V499        V  0.37557479  0.47345886  0.09299726     1.35200
V500        V  0.40501159  0.46048784  0.12965244     1.35200
C501        C  0.43199928  0.53593079  0.12527544     0.77100
C502        C  0.34935053  0.39769886  0.09798577     0.77200
C503        C  0.34357941  0.46220079  0.15801175     0.77100
C504        C  0.43627542  0.47195176  0.06367262     0.77000
C505        C  0.28985633  0.33713051  0.10219751    -0.26700
C506        C  0.32705646  0.35739753  0.09058029    -0.14700
C507        C  0.34467578  0.33834489  0.07604798     0.35900
C508        C  0.32500217  0.29924352  0.07389076    -0.26100
C509        C  0.28803009  0.27850596  0.08634740    -0.15300
C510        C  0.27024363  0.29782984  0.10033544     0.37000
N511        N  0.23237059  0.27781814  0.11256580    -0.89600
H512        H  0.27643702  0.35175808  0.11384431     0.18100
H513        H  0.33899126  0.28488979  0.06290112     0.18100
N514        N  0.38281812  0.35891706  0.06406181    -0.88600
H515        H  0.21647472  0.28683964  0.09847968     0.35500
H516        H  0.23209628  0.28488410  0.13889560     0.40600
H517        H  0.38342420  0.37537106  0.04311804     0.40200
H518        H  0.39188074  0.34080432  0.05427534     0.35100
C519        C  0.35773377  0.15963140  0.17154851    -0.26700
C520        C  0.34006297  0.14338484  0.20332059    -0.14700
C521        C  0.30188712  0.13279618  0.20792993     0.35900
C522        C  0.28264813  0.13943218  0.18105850    -0.26100
C523        C  0.30037651  0.15586654  0.14938137    -0.15300
C524        C  0.33845624  0.16613557  0.14462741     0.37000
N525        N  0.35765136  0.18357396  0.11281578    -0.89600
H526        H  0.38708283  0.16804718  0.16784193     0.18100
H527        H  0.25329685  0.13103253  0.18472256     0.18100
N528        N  0.28257983  0.11500679  0.23958433    -0.88600
H529        H  0.38530973  0.18855706  0.11328926     0.35500
H530        H  0.35919529  0.20969035  0.11165068     0.40600
H531        H  0.28125684  0.08896466  0.24055688     0.40200
H532        H  0.25485974  0.10978498  0.23900714     0.35100
C533        C  0.33806905  0.00072067  0.29236502    -0.26700
C534        C  0.35717976  0.02381294  0.26388900    -0.14700
C535        C  0.35610548  0.00687116  0.23112891     0.35900
C536        C  0.33500372  0.96794301  0.22734569    -0.26100
C537        C  0.31560488  0.94510318  0.25573479    -0.15300
C538        C  0.31764608  0.96179182  0.28868657     0.37000
N539        N  0.29786434  0.94004523  0.31842909    -0.89600
H540        H  0.33851578  0.01306036  0.31769535     0.18100
H541        H  0.33347763  0.95539217  0.20187504     0.18100
N542        N  0.37488607  0.02835730  0.20094794    -0.88600
H543        H  0.30770175  0.92144512  0.32373636     0.35500
H544        H  0.26936751  0.92465978  0.31214313     0.40600
H545        H  0.40358049  0.04309088  0.20605462     0.40200
H546        H  0.36522291  0.04731548  0.19627929     0.35100
C547        C  0.17676749  0.80977129  0.34243006    -0.26700
C548        C  0.17392046  0.82410734  0.30998518    -0.14700
C549        C  0.14383830  0.83117253  0.30451285     0.35900
C550        C  0.11788141  0.82418147  0.33162811    -0.26100
C551        C  0.12135047  0.81075885  0.36442542    -0.15300
C552        C  0.15122707  0.80312894  0.36944378     0.37000
N553        N  0.15674725  0.78870648  0.40150381    -0.89600
H554        H  0.19926988  0.80359624  0.34714967     0.18100
H555        H  0.09514468  0.83005545  0.32718839     0.18100
N556        N  0.13965123  0.84552267  0.27169844    -0.88600
H557        H  0.13268575  0.76341686  0.40688337     0.35500
H558        H  0.16163120  0.80792960  0.42167457     0.40600
H559        H  0.16199813  0.87270502  0.26945906     0.40200
H560        H  0.11521246  0.84768760  0.27155930     0.35100
C561        C  0.95429188  0.63964511  0.38743874    -0.26700
C562        C  0.94291991  0.61658562  0.41701355    -0.14700
C563        C  0.94923208  0.63300532  0.45062920     0.35900
C564        C  0.96863931  0.67218256  0.45392998    -0.26100
C565        C  0.98119886  0.69522701  0.42435622    -0.15300
C566        C  0.97308568  0.67859832  0.39073060     0.37000
N567        N  0.98553576  0.70042852  0.35958386    -0.89600
H568        H  0.94949122  0.62723415  0.36148078     0.18100
H569        H  0.97488580  0.68487570  0.47979450     0.18100
N570        N  0.93822258  0.61003744  0.48124213    -0.88600
H571        H  0.01467597  0.71723261  0.36080277     0.35500
H572        H  0.97334536  0.71759490  0.35867458     0.40600
H573        H  0.90893548  0.59537041  0.48186194     0.40200
H574        H  0.94679372  0.62658192  0.50392886     0.35100
C575        C  0.94697200  0.47618733  0.50549879    -0.26700
C576        C  0.96609146  0.49634776  0.47556312    -0.14700
C577        C  0.00486602  0.50914710  0.47281951     0.35900
C578        C  0.02356236  0.50171143  0.49968506    -0.26100
C579        C  0.00446922  0.48165245  0.52966813    -0.15300
C580        C  0.96564993  0.46863662  0.53230528     0.37000
N581        N  0.94480414  0.44707315  0.56172792    -0.89600
H582        H  0.91705638  0.46558036  0.50801145     0.18100
H583        H  0.05345219  0.51219181  0.49711639     0.18100
N584        N  0.02561409  0.53015482  0.44310782    -0.88600
H585        H  0.92375977  0.42122203  0.55242798     0.35500
H586        H  0.93188828  0.46080264  0.57373271     0.40600
H587        H  0.03818594  0.51599978  0.43124887     0.40200
H588        H  0.04690657  0.55602466  0.45204543     0.35100
C589        C  0.99143787  0.30157425  0.55307336    -0.26700
C590        C  0.98323797  0.27920079  0.58301433    -0.14700
C591        C  0.99417253  0.29685258  0.61615050     0.35900
C592        C  0.01239163  0.33590780  0.61863414    -0.26100
C593        C  0.02063031  0.35821719  0.58872207    -0.15300
C594        C  0.01027976  0.34086270  0.55553033     0.37000
N595        N  0.01698021  0.36299707  0.52470998    -0.89600
H596        H  0.98275451  0.28827332  0.52759430     0.18100
H597        H  0.01986132  0.34900486  0.64430143     0.18100
N598        N  0.98557671  0.27593575  0.64782955    -0.88600
H599        H  0.00581369  0.34584906  0.50261467     0.35500
H600        H  0.04595290  0.37809516  0.52088169     0.40600
H601        H  0.99898562  0.25985493  0.64728972     0.40200
H602        H  0.95659648  0.25815030  0.64896259     0.35100
C603        C  0.82958094  0.15295200  0.70692884    -0.26700
C604        C  0.79306821  0.14445710  0.69778136    -0.14700
C605        C  0.78384572  0.14331239  0.66190870     0.35900
C606        C  0.81156356  0.15152299  0.63631727    -0.26100
C607        C  0.84803947  0.15991409  0.64552609    -0.15300
C608        C  0.85716386  0.16083599  0.68139253     0.37000
N609        N  0.89443907  0.16995586  0.69193857    -0.89600
H610        H  0.83693435  0.15407718  0.73428588     0.18100
H611        H  0.80424653  0.15013925  0.60892009     0.18100
N612        N  0.74629977  0.13317172  0.65140508    -0.88600
H613        H  0.89614161  0.16845219  0.71911961     0.35500
H614        H  0.91235980  0.19775048  0.68526920     0.40600
H615        H  0.72900475  0.10525694  0.65815213     0.40200
H616        H  0.74451048  0.13443385  0.62421387     0.35100
C617        C  0.62273069  0.00058124  0.75625402    -0.26700
C618        C  0.66209206  0.01955198  0.75693447    -0.14700
C619        C  0.68128604  0.99882836  0.75534312     0.35900
C620        C  0.66076629  0.95971726  0.75351983    -0.26100
C621        C  0.62139506  0.94057774  0.75356466    -0.15300
C622        C  0.60224498  0.96141678  0.75498981     0.37000
N623        N  0.56216174  0.94371284  0.75436760    -0.89600
H624        H  0.60777628  0.01623899  0.75767155     0.18100
H625        H  0.67567448  0.94400754  0.75202022     0.18100
N626        N  0.72161485  0.01762877  0.75526338    -0.88600
H627        H  0.55173786  0.92680375  0.77638215     0.35500
H628        H  0.55246829  0.92695995  0.73187192     0.40600
H629        H  0.73071937  0.03323076  0.73233618     0.40200
H630        H  0.73136702  0.99837750  0.75420886     0.35100
C631        C  0.67994372  0.80793834  0.83652533    -0.26700
C632        C  0.66588980  0.80281388  0.87088977    -0.14700
C633        C  0.63208418  0.80338200  0.87712123     0.35900
C634        C  0.61371284  0.80959691  0.84901635    -0.26100
C635        C  0.62815735  0.81524248  0.81471105    -0.15300
C636        C  0.66186677  0.81446588  0.80857107     0.37000
N637        N  0.67799990  0.82054020  0.77413257    -0.89600
H638        H  0.70585534  0.80763670  0.83133137     0.18100
H639        H  0.58781710  0.80998192  0.85406327     0.18100
N640        N  0.61674123  0.79832436  0.91182592    -0.88600
H641        H  0.70172597  0.81713548  0.77388049     0.35500
H642        H  0.68740186  0.84845561  0.76793145     0.40600
H643        H  0.60789257  0.77073959  0.91889323     0.40200
H644        H  0.59279399  0.80135173  0.91206918     0.35100
C645        C  0.68575081  0.63118369  0.90647666    -0.26700
C646        C  0.65499120  0.60852383  0.92767093    -0.14700
C647        C  0.64218620  0.62516946  0.95252639     0.35900
C648        C  0.66006096  0.66392581  0.95581930    -0.26100
C649        C  0.69043698  0.68719257  0.93422065    -0.15300
C650        C  0.70388783  0.67046775  0.90959667     0.37000
N651        N  0.73500254  0.69311756  0.88722961    -0.89600
H652        H  0.69491038  0.61819849  0.88679170     0.18100
H653        H  0.64922368  0.67583716  0.97498662     0.18100
N654        N  0.61023119  0.60325280  0.97408090    -0.88600
H655        H  0.74006689  0.67641748  0.86962687     0.35500
H656        H  0.75885528  0.70657194  0.90303988     0.40600
H657        H  0.61561949  0.58481176  0.98828077     0.40200
H658        H  0.58704677  0.58764990  0.95790561     0.35100
C659        C  0.50018666  0.48537511  0.04521975    -0.26700
C660        C  0.46366500  0.47676181  0.03579970    -0.14700
C661        C  0.45445843  0.47485864  0.99988286     0.35900
C662        C  0.48210850  0.48243949  0.97447223    -0.26100
C663        C  0.51858005  0.49097679  0.98384652    -0.15300
C664        C  0.52778259  0.49263517  0.01972903     0.37000
N665        N  0.56511813  0.50205592  0.03028346    -0.89600
H666        H  0.50751860  0.48725460  0.07265951     0.18100
H667        H  0.47474013  0.48055071  0.94703946     0.18100
N668        N  0.41694776  0.46465203  0.98917532    -0.88600
H669        H  0.56696069  0.50141348  0.05752419     0.35500
H670        H  0.58296827  0.52963391  0.02296023     0.40600
H671        H  0.39951108  0.43697900  0.99657303     0.40200
H672        H  0.41510891  0.46519699  0.96192462     0.35100
C673        C  0.19683617  0.00313839  0.04340893    -0.26700
C674        C  0.16948534  0.99123411  0.01704486    -0.14700
C675        C  0.14822708  0.00963787  0.01334700     0.35900
C676        C  0.15730085  0.04178909  0.03331771    -0.26100
C677        C  0.18759061  0.05617170  0.05661617    -0.15300
C678        C  0.20632274  0.03558567  0.06315722     0.37000
N679        N  0.23651605  0.04802500  0.08799699    -0.89600
H680        H  0.21297668  0.98890876  0.04687145     0.18100
H681        H  0.14284683  0.05743572  0.02819289     0.18100
N682        N  0.11845569  0.99670493  0.98822699    -0.88600
H683        H  0.22862173  0.02718373  0.10677222     0.35500
H684        H  0.24030304  0.07182497  0.10157162     0.40600
H685        H  0.12458107  0.01830857  0.97069497     0.40200
H686        H  0.09382478  0.99098925  0.00148648     0.35100
C687        C  0.63480300  0.14251139  0.85762693    -0.26700
C688        C  0.64297855  0.11419308  0.84806597    -0.14700
C689        C  0.61776915  0.07694804  0.85674211     0.35900
C690        C  0.58351913  0.06841837  0.87261731    -0.26100
C691        C  0.57399586  0.09636549  0.87986251    -0.15300
C692        C  0.60073237  0.13404870  0.87410659     0.37000
N693        N  0.59213537  0.16321752  0.88246413    -0.89600
H694        H  0.65421292  0.17106066  0.85062170     0.18100
H695        H  0.56317417  0.03950204  0.87748338     0.18100
N696        N  0.62586645  0.04766832  0.84717226    -0.88600
H697        H  0.61412642  0.18915182  0.87497982     0.35500
H698        H  0.59026328  0.16428932  0.90970142     0.40600
H699        H  0.62602137  0.04616176  0.81985929     0.40200
H700        H  0.60448027  0.02183071  0.85561238     0.35100
C701        C  0.30047938  0.99611918  0.95437746    -0.26700
C702        C  0.27622756  0.98706406  0.92548393    -0.14700
C703        C  0.29178144  0.99843480  0.89191916     0.35900
C704        C  0.33100434  0.01683966  0.88765412    -0.26100
C705        C  0.35513361  0.02490942  0.91650400    -0.15300
C706        C  0.33969439  0.01516020  0.95030609     0.37000
N707        N  0.36373585  0.02234859  0.98008177    -0.89600
H708        H  0.28870257  0.98749379  0.98028572     0.18100
H709        H  0.34266656  0.02411177  0.86154852     0.18100
N710        N  0.26794207  0.98969431  0.86194094    -0.88600
H711        H  0.34786415  0.01157021  0.00279301     0.35500
H712        H  0.37906151  0.05125649  0.98375299     0.40600
H713        H  0.27404114  0.97343900  0.84472348     0.40200
H714        H  0.27458835  0.01468589  0.84942712     0.35100
C715        C  0.10092169  0.63054847  0.64316598    -0.26700
C716        C  0.13231505  0.64546653  0.66535575    -0.14700
C717        C  0.15515043  0.62856226  0.66612652     0.35900
C718        C  0.14472005  0.59554990  0.64698318    -0.26100
C719        C  0.11121319  0.57852555  0.62788371    -0.15300
C720        C  0.08984528  0.59685320  0.62474871     0.37000
N721        N  0.05600376  0.58010369  0.60428353    -0.89600
H722        H  0.08337951  0.64352972  0.64236138     0.18100
H723        H  0.16130052  0.58167541  0.64933704     0.18100
N724        N  0.18824864  0.64413819  0.68736911    -0.88600
H725        H  0.06352044  0.57912981  0.57827959     0.35500
H726        H  0.04330033  0.59687786  0.60485778     0.40600
H727        H  0.21108144  0.64995722  0.67115111     0.40200
H728        H  0.18557601  0.62392770  0.70529051     0.35100
C729        C  0.13553755  0.84088247  0.83907750    -0.26700
C730        C  0.15951240  0.84650510  0.86754277    -0.14700
C731        C  0.17855156  0.82569972  0.86899735     0.35900
C732        C  0.17252839  0.79928521  0.84248044    -0.26100
C733        C  0.14833212  0.79345904  0.81412706    -0.15300
C734        C  0.12953501  0.81451664  0.81254919     0.37000
N735        N  0.10391122  0.80868517  0.78444942    -0.89600
H736        H  0.12064793  0.85658398  0.83786936     0.18100
H737        H  0.18745124  0.78361764  0.84366606     0.18100
N738        N  0.20438357  0.83181373  0.89698199    -0.88600
H739        H  0.09286350  0.82679923  0.78691976     0.35500
H740        H  0.08131641  0.78164783  0.78678384     0.40600
H741        H  0.22673257  0.85901755  0.89465831     0.40200
H742        H  0.21577116  0.81402137  0.89434804     0.35100
C743        C  0.71055446  0.49400111  0.81155033    -0.26700
C744        C  0.73160371  0.53015715  0.79842802    -0.14700
C745        C  0.71649690  0.55447818  0.79905250     0.35900
C746        C  0.68181838  0.54334310  0.81522538    -0.26100
C747        C  0.66276740  0.50875002  0.83184785    -0.15300
C748        C  0.67635675  0.48318518  0.82876147     0.37000
N749        N  0.65628102  0.44713118  0.84470193    -0.89600
H750        H  0.72225658  0.47534514  0.81098229     0.18100
H751        H  0.67153907  0.56310301  0.81755341     0.18100
N752        N  0.73715184  0.59110176  0.78462622    -0.88600
H753        H  0.67029268  0.43188574  0.84055166     0.35500
H754        H  0.63044032  0.43253159  0.83193948     0.40600
H755        H  0.74172864  0.61053661  0.80453375     0.40200
H756        H  0.72050923  0.59384099  0.76545905     0.35100
C757        C  0.97587729  0.62263837  0.79522975    -0.26700
C758        C  0.95215129  0.60890791  0.76582135    -0.14700
C759        C  0.96824042  0.61374514  0.73223698     0.35900
C760        C  0.00745529  0.63485301  0.72861570    -0.26100
C761        C  0.03104831  0.64999401  0.75788165    -0.15300
C762        C  0.01520029  0.64274428  0.79163750     0.37000
N763        N  0.03887776  0.65712573  0.82197885    -0.89600
H764        H  0.96358472  0.61850548  0.82109640     0.18100
H765        H  0.01974381  0.64007108  0.70269118     0.18100
N766        N  0.94475846  0.59912799  0.70180259    -0.88600
H767        H  0.02280407  0.64907632  0.84484209     0.35500
H768        H  0.05200613  0.68624789  0.82119253     0.40600
H769        H  0.93182136  0.57002379  0.70286953     0.40200
H770        H  0.96096983  0.60681675  0.67903365     0.35100
C771        C  0.92789780  0.81042274  0.53440849    -0.26700
C772        C  0.91247667  0.77777506  0.55420849    -0.14700
C773        C  0.93185524  0.75749837  0.55731235     0.35900
C774        C  0.96523612  0.76888673  0.53847443    -0.26100
C775        C  0.97856644  0.79928886  0.51572309    -0.15300
C776        C  0.96053344  0.82104367  0.51470716     0.37000
N777        N  0.97441346  0.85300609  0.49259044    -0.89600
H778        H  0.91289393  0.82591317  0.53183919     0.18100
H779        H  0.97902002  0.75210219  0.53923607     0.18100
N780        N  0.91626120  0.72419074  0.57793942    -0.88600
H781        H  0.98008323  0.87620410  0.50825498     0.35500
H782        H  0.95319331  0.84888345  0.47498004     0.40600
H783        H  0.91570288  0.73200955  0.60396410     0.40200
H784        H  0.93363721  0.71215182  0.57714819     0.35100
C785        C  0.82798513  0.66174061  0.71379742    -0.26700
C786        C  0.83309137  0.63148027  0.70409936    -0.14700
C787        C  0.83008169  0.62115609  0.66833783     0.35900
C788        C  0.82212444  0.64105203  0.64330100    -0.26100
C789        C  0.81697270  0.67127767  0.65300223    -0.15300
C790        C  0.81972602  0.68144757  0.68879264     0.37000
N791        N  0.81343243  0.71128344  0.70013399    -0.89600
H792        H  0.82945304  0.66969040  0.74111733     0.18100
H793        H  0.82040788  0.63293908  0.61600715     0.18100
N794        N  0.83533812  0.59064935  0.65710834    -0.88600
H795        H  0.83744215  0.73109411  0.71328276     0.35500
H796        H  0.79118965  0.70053477  0.71794347     0.40600
H797        H  0.85734051  0.60073141  0.63906727     0.40200
H798        H  0.81093797  0.57110870  0.64424861     0.35100
C799        C  0.63585887  0.65345331  0.62914376    -0.26700
C800        C  0.61304196  0.64554353  0.59929092    -0.14700
C801        C  0.63005744  0.65855888  0.56644635     0.35900
C802        C  0.66945519  0.67828621  0.56406437    -0.26100
C803        C  0.69216362  0.68559931  0.59383238    -0.15300
C804        C  0.67523816  0.67365895  0.62680961     0.37000
N805        N  0.69801674  0.68020130  0.65742530    -0.89600
H806        H  0.62284646  0.64342051  0.65440344     0.18100
H807        H  0.68261494  0.68735933  0.53870217     0.18100
N808        N  0.60742826  0.65036749  0.53549151    -0.88600
H809        H  0.68119217  0.66812066  0.67936025     0.35500
H810        H  0.71248764  0.70897535  0.66219368     0.40600
H811        H  0.59379514  0.62146972  0.53159482     0.40200
H812        H  0.62430639  0.66215505  0.51350582     0.35100
C813        C  0.54528549  0.70331111  0.72384250    -0.26700
C814        C  0.52240197  0.71940792  0.71815956    -0.14700
C815        C  0.48902054  0.69966889  0.69892599     0.35900
C816        C  0.48091992  0.66559756  0.68290624    -0.26100
C817        C  0.50556506  0.65105215  0.68594805    -0.15300
C818        C  0.53701190  0.66900707  0.70814633     0.37000
N819        N  0.56234449  0.65437658  0.71183264    -0.89600
H820        H  0.57106349  0.71884883  0.73858340     0.18100
H821        H  0.45670151  0.65166938  0.66587503     0.18100
N822        N  0.46540860  0.71592470  0.69308383    -0.88600
H823        H  0.58510184  0.67198545  0.72767804     0.35500
H824        H  0.54799800  0.62906095  0.72504229     0.40600
H825        H  0.45450224  0.71791316  0.71729427     0.40200
H826        H  0.44250211  0.69835348  0.67735515     0.35100
C827        C  0.48902945  0.49193064  0.47255808    -0.26700
C828        C  0.47637530  0.45453469  0.48090555    -0.14700
C829        C  0.47200375  0.44392265  0.51646296     0.35900
C830        C  0.48102133  0.47112371  0.54281134    -0.26100
C831        C  0.49385882  0.50858577  0.53445191    -0.15300
C832        C  0.49819414  0.51914682  0.49887427     0.37000
N833        N  0.51251207  0.55756134  0.48953603    -0.89600
H834        H  0.49311735  0.50023067  0.44536944     0.18100
H835        H  0.47697747  0.46282518  0.57000029     0.18100
N836        N  0.45802797  0.40552696  0.52570902    -0.88600
H837        H  0.51361091  0.56050249  0.46234927     0.35500
H838        H  0.54016966  0.57238052  0.49849362     0.40600
H839        H  0.43048733  0.39038384  0.51647168     0.40200
H840        H  0.45672087  0.40250904  0.55289520     0.35100
C841        C  0.43617153  0.29731212  0.30806742    -0.26700
C842        C  0.46831462  0.31423843  0.32912015    -0.14700
C843        C  0.49201962  0.29834617  0.33080430     0.35900
C844        C  0.48160592  0.26421579  0.31388534    -0.26100
C845        C  0.44716966  0.24509829  0.29648374    -0.15300
C846        C  0.42473824  0.26222769  0.29246171     0.37000
N847        N  0.38981523  0.24333830  0.27369595    -0.89600
H848        H  0.41797375  0.30953052  0.30677140     0.18100
H849        H  0.49883725  0.25109097  0.31706042     0.18100
N850        N  0.52566825  0.31582475  0.35127202    -0.88600
H851        H  0.37743031  0.26031729  0.27217071     0.35500
H852        H  0.37138467  0.22006673  0.28819404     0.40600
H853        H  0.54817816  0.32093613  0.33486881     0.40200
H854        H  0.52389164  0.29705558  0.37043801     0.35100
C855        C  0.00755158  0.20215999  0.47289661    -0.26700
C856        C  0.99488147  0.17323527  0.49737228    -0.14700
C857        C  0.01399222  0.15230525  0.50002489     0.35900
C858        C  0.04572005  0.16169028  0.47957333    -0.26100
C859        C  0.06041413  0.19290337  0.45801512    -0.15300
C860        C  0.04080801  0.21285981  0.45385868     0.37000
N861        N  0.05606576  0.24523830  0.43198131    -0.89600
H862        H  0.99337328  0.21849458  0.47085579     0.18100
H863        H  0.06115191  0.14674300  0.48325353     0.18100
N864        N  0.00298617  0.12232407  0.52416917    -0.88600
H865        H  0.03863310  0.25721550  0.43209804     0.35500
H866        H  0.05635274  0.23634240  0.40630196     0.40600
H867        H  0.97504153  0.10317048  0.51995837     0.40200
H868        H  0.00653033  0.13279011  0.54983993     0.35100
C869        C  0.29795198  0.28010618  0.39151765    -0.26700
C870        C  0.28171181  0.28216894  0.42333098    -0.14700
C871        C  0.30545064  0.30075983  0.45216982     0.35900
C872        C  0.34448636  0.31725482  0.44863515    -0.26100
C873        C  0.36064999  0.31669713  0.41653592    -0.15300
C874        C  0.33727697  0.29779072  0.38767582     0.37000
N875        N  0.35367744  0.29740258  0.35443575    -0.89600
H876        H  0.28003551  0.26602147  0.36928275     0.18100
H877        H  0.36231386  0.33232500  0.47065638     0.18100
N878        N  0.29013588  0.30349954  0.48514018    -0.88600
H879        H  0.33280387  0.28273644  0.33578088     0.35500
H880        H  0.36831870  0.28269484  0.35753268     0.40600
H881        H  0.30065963  0.33179423  0.49104477     0.40200
H882        H  0.29991072  0.29239287  0.50428602     0.35100
C883        C  0.25939477  0.41491996  0.21709848    -0.26700
C884        C  0.24364703  0.43828405  0.21282401    -0.14700
C885        C  0.26426624  0.47265501  0.19580437     0.35900
C886        C  0.29931755  0.48185173  0.18125521    -0.26100
C887        C  0.31384195  0.45715619  0.18306387    -0.15300
C888        C  0.29458897  0.42419150  0.20265652     0.37000
N889        N  0.30910083  0.39871909  0.20509212    -0.89600
H890        H  0.24315925  0.38834918  0.22998417     0.18100
H891        H  0.31413516  0.50716627  0.16616670     0.18100
N892        N  0.24832903  0.49670837  0.19104016    -0.88600
H893        H  0.29061282  0.37495388  0.21900304     0.35500
H894        H  0.33378435  0.41193996  0.21981909     0.40600
H895        H  0.22495223  0.48278623  0.17468803     0.40200
H896        H  0.26716037  0.52096283  0.17796360     0.35100
C897        C  0.14554694  0.34743882  0.33861216    -0.26700
C898        C  0.14048641  0.33338086  0.30408747    -0.14700
C899        C  0.14352621  0.30106309  0.29747832     0.35900
C900        C  0.15187504  0.28407707  0.32522773    -0.26100
C901        C  0.15716112  0.29824798  0.35971935    -0.15300
C902        C  0.15406909  0.33055671  0.36633809     0.37000
N903        N  0.15931125  0.34615304  0.40106237    -0.89600
H904        H  0.14347738  0.37229442  0.34407695     0.18100
H905        H  0.15404824  0.25928483  0.31973822     0.18100
N906        N  0.13873178  0.28575877  0.26266779    -0.88600
H907        H  0.15415584  0.36869748  0.40167537     0.35500
H908        H  0.18761382  0.35704302  0.40747462     0.40600
H909        H  0.11055785  0.27506886  0.25587560     0.40200
H910        H  0.14379398  0.26315171  0.26206173     0.35100
C911        C  0.95665333  0.30870575  0.21737263    -0.26700
C912        C  0.94160161  0.31868601  0.24576928    -0.14700
C913        C  0.96615516  0.34708600  0.26918527     0.35900
C914        C  0.00514702  0.36373462  0.26419428    -0.26100
C915        C  0.02046477  0.35259176  0.23661029    -0.15300
C916        C  0.99559629  0.32522515  0.21255053     0.37000
N917        N  0.00957299  0.31351942  0.18337735    -0.89600
H918        H  0.93806834  0.28670090  0.19959214     0.18100
H919        H  0.02357795  0.38483037  0.28273865     0.18100
N920        N  0.95268452  0.35903917  0.29877453    -0.88600
H921        H  0.99882249  0.31837394  0.16046432     0.35500
H922        H  0.99936217  0.28476944  0.18528602     0.40600
H923        H  0.92345922  0.34543316  0.29952603     0.40200
H924        H  0.96135728  0.38735253  0.29555883     0.35100
C925        C  0.83175145  0.38137582  0.35632056    -0.26700
C926        C  0.86521430  0.39898495  0.37530045    -0.14700
C927        C  0.88697165  0.38108184  0.37906476     0.35900
C928        C  0.87572584  0.34669567  0.36231057    -0.26100
C929        C  0.84395870  0.33066444  0.34061513    -0.15300
C930        C  0.82106535  0.34758230  0.33856689     0.37000
N931        N  0.78778560  0.33107537  0.31735245    -0.89600
H932        H  0.81523168  0.39529733  0.35338829     0.18100
H933        H  0.89349711  0.33402320  0.36403419     0.18100
N934        N  0.92104977  0.39772649  0.39894917    -0.88600
H935        H  0.77476229  0.34754736  0.31780674     0.35500
H936        H  0.76908478  0.30579069  0.32888417     0.40600
H937        H  0.91494031  0.40285955  0.42433572     0.40200
H938        H  0.93978582  0.42324536  0.38771522     0.35100
C939        C  0.80981939  0.11671692  0.17497503    -0.26700
C940        C  0.80864964  0.12620139  0.13987925    -0.14700
C941        C  0.81170372  0.16118233  0.13248302     0.35900
C942        C  0.81708717  0.18611841  0.16012028    -0.26100
C943        C  0.81945021  0.17711193  0.19510540    -0.15300
C944        C  0.81460928  0.14148307  0.20265879     0.37000
N945        N  0.81389996  0.13023246  0.23827268    -0.89600
H946        H  0.80666774  0.08961342  0.18095711     0.18100
H947        H  0.82011127  0.21316346  0.15410534     0.18100
N948        N  0.80999654  0.17169445  0.09704981    -0.88600
H949        H  0.81053794  0.10333847  0.23919170     0.35500
H950        H  0.79012171  0.12875722  0.25015188     0.40600
H951        H  0.83402539  0.17502089  0.08416742     0.40200
H952        H  0.81107893  0.19765111  0.09639235     0.35100
C953        C  0.75720711  0.95722744  0.97974325    -0.26700
C954        C  0.79374109  0.97855741  0.99268534    -0.14700
C955        C  0.81978364  0.96561693  0.98783193     0.35900
C956        C  0.80811463  0.93057427  0.97248236    -0.26100
C957        C  0.77054639  0.90766915  0.96308329    -0.15300
C958        C  0.74523318  0.92158572  0.96554875     0.37000
N959        N  0.70695751  0.89891678  0.95495631    -0.89600
H960        H  0.73695470  0.96678063  0.98350594     0.18100
H961        H  0.82774648  0.92004983  0.97049133     0.18100
N962        N  0.85795578  0.98711126  0.99889941    -0.88600
H963        H  0.70111318  0.91329781  0.93576800     0.35500
H964        H  0.68986390  0.89563144  0.97656015     0.40600
H965        H  0.85858953  0.99150913  0.02589322     0.40200
H966        H  0.86954431  0.01284455  0.98629704     0.35100
C967        C  0.34678393  0.82359746  0.17477948    -0.26700
C968        C  0.32636545  0.84172363  0.16600102    -0.14700
C969        C  0.33808546  0.86612077  0.13718018     0.35900
C970        C  0.37209219  0.87477693  0.12030625    -0.26100
C971        C  0.39377633  0.85879121  0.13118049    -0.15300
C972        C  0.38052849  0.83215788  0.15792949     0.37000
N973        N  0.40256618  0.81565326  0.16935301    -0.89600
H974        H  0.33759636  0.80432160  0.19644598     0.18100
H975        H  0.38271977  0.89548820  0.09983881     0.18100
N976        N  0.31701633  0.88394166  0.12671768    -0.88600
H977        H  0.38864889  0.79626027  0.18908567     0.35500
H978        H  0.42716252  0.83680451  0.18062873     0.40600
H979        H  0.29135939  0.86315242  0.11684106     0.40200
H980        H  0.33041004  0.90223937  0.10607909     0.35100
C981        C  0.48371652  0.99183608  0.03741095    -0.26700
C982        C  0.48835893  0.96111910  0.02863629    -0.14700
C983        C  0.48440128  0.94928064  0.99315415     0.35900
C984        C  0.47579559  0.96836206  0.96759771    -0.26100
C985        C  0.47167063  0.99940744  0.97638857    -0.15300
C986        C  0.47518547  0.01090588  0.01191887     0.37000
N987        N  0.46996114  0.04184473  0.02218556    -0.89600
H988        H  0.48614254  0.00075838  0.06450725     0.18100
H989        H  0.47352525  0.95963459  0.94045029     0.18100
N990        N  0.48967818  0.91836305  0.98294871    -0.88600
H991        H  0.47435305  0.04716485  0.04906313     0.35500
H992        H  0.44190878  0.03410797  0.01747613     0.40600
H993        H  0.51786378  0.92634199  0.98721232     0.40200
H994        H  0.48486552  0.91277532  0.95613956     0.35100
C995        C  0.63770685  0.96582673  0.11816174    -0.26700
C996        C  0.61387539  0.94946034  0.08915227    -0.14700
C997        C  0.63003099  0.95221799  0.05576385     0.35900
C998        C  0.66913615  0.97190466  0.05203468    -0.26100
C999        C  0.69279226  0.98846459  0.08101283    -0.15300
C1000       C  0.67697131  0.98523430  0.11445229     0.37000
N1001       N  0.70072670  0.00289519  0.14423700    -0.89600
H1002       H  0.62557546  0.96400676  0.14382129     0.18100
H1003       H  0.68118659  0.97473231  0.02617270     0.18100
N1004       N  0.60754753  0.93685494  0.02500485    -0.88600
H1005       H  0.68468246  0.99790352  0.16693394     0.35500
H1006       H  0.71432601  0.03174257  0.14031602     0.40600
H1007       H  0.58954103  0.94805210  0.02271339     0.40200
H1008       H  0.59151779  0.90797156  0.02783505     0.35100
C1009       C  0.86580740  0.80999591  0.03201206    -0.26700
C1010       C  0.85174222  0.77838838  0.05307888    -0.14700
C1011       C  0.81294569  0.75776527  0.05994969     0.35900
C1012       C  0.78844961  0.76753590  0.04318248    -0.26100
C1013       C  0.80219874  0.79666442  0.01896884    -0.15300
C1014       C  0.84135260  0.81938527  0.01478644     0.37000
N1015       N  0.85593169  0.85068680  0.99155261    -0.89600
H1016       H  0.89566171  0.82563936  0.02686494     0.18100
H1017       H  0.75844789  0.75030888  0.04657916     0.18100
N1018       N  0.79853392  0.72617292  0.08284512    -0.88600
H1019       H  0.88522904  0.86418301  0.99104076     0.35500
H1020       H  0.84850824  0.86988910  0.00176121     0.40600
H1021       H  0.80296899  0.70562985  0.07094587     0.40200
H1022       H  0.76952964  0.71455546  0.08574047     0.35100
C1023       C  0.00488562  0.83643480  0.00362433    -0.26700
C1024       C  0.99194777  0.79784157  0.00122333    -0.14700
C1025       C  0.01073696  0.78481784  0.97880338     0.35900
C1026       C  0.04352266  0.81059890  0.96169190    -0.26100
C1027       C  0.05775143  0.84918296  0.96608928    -0.15300
C1028       C  0.03756966  0.86226258  0.98619431     0.37000
N1029       N  0.05212013  0.90168226  0.99131057    -0.89600
H1030       H  0.99052134  0.84655923  0.02073151     0.18100
H1031       H  0.05924604  0.80048996  0.94650358     0.18100
N1032       N  0.99889296  0.74589306  0.97497658    -0.88600
H1033       H  0.03466495  0.90670722  0.00795599     0.35500
H1034       H  0.05158122  0.91298515  0.96709782     0.40600
H1035       H  0.97160090  0.73241574  0.96500771     0.40200
H1036       H  0.99876721  0.73506743  0.99964578     0.35100
C1037       C  0.09772223  0.48092961  0.11201041    -0.26700
C1038       C  0.11928893  0.51897443  0.12074207    -0.14700
C1039       C  0.15034186  0.53072340  0.14335424     0.35900
C1040       C  0.15639676  0.50381892  0.15968437    -0.26100
C1041       C  0.13236985  0.46548625  0.15394473    -0.15300
C1042       C  0.10404001  0.45390570  0.12832565     0.37000
N1043       N  0.07997146  0.41487999  0.12101569    -0.89600
H1044       H  0.07385008  0.47203133  0.09470242     0.18100
H1045       H  0.17860991  0.51293881  0.17897045     0.18100
N1046       N  0.17424704  0.56925054  0.15273997    -0.88600
H1047       H  0.06091524  0.41125099  0.10116723     0.35500
H1048       H  0.06408464  0.40276632  0.14344702     0.40600
H1049       H  0.16736973  0.58666211  0.13859889     0.40200
H1050       H  0.20151637  0.57635360  0.14528008     0.35100
C1051       C  0.01658432  0.70091135  0.08232815    -0.26700
C1052       C  0.97838149  0.68298217  0.09094634    -0.14700
C1053       C  0.96044972  0.64541877  0.10131080     0.35900
C1054       C  0.98100646  0.62634957  0.10263317    -0.26100
C1055       C  0.01917958  0.64377041  0.09336772    -0.15300
C1056       C  0.03705170  0.68166133  0.08303777     0.37000
N1057       N  0.07580383  0.70143212  0.07338915    -0.89600
H1058       H  0.03026025  0.72965923  0.07379345     0.18100
H1059       H  0.96687849  0.59743790  0.11066118     0.18100
N1060       N  0.92128696  0.62675180  0.11028155    -0.88600
H1061       H  0.07971376  0.68829651  0.05145896     0.35500
H1062       H  0.09177696  0.70036424  0.09416571     0.40600
H1063       H  0.91816158  0.63999354  0.13254370     0.40200
H1064       H  0.91219784  0.59905547  0.11715247     0.35100
C1065       C  0.12164310  0.67456902  0.19971129    -0.26700
C1066       C  0.13753642  0.65887461  0.17718878    -0.14700
C1067       C  0.17693669  0.67562424  0.17503802     0.35900
C1068       C  0.19965981  0.70897823  0.19324408    -0.26100
C1069       C  0.18372305  0.72662835  0.21277901    -0.15300
C1070       C  0.14440973  0.70881457  0.21706622     0.37000
N1071       N  0.12779566  0.72592678  0.23837955    -0.89600
H1072       H  0.09140493  0.66176556  0.20151950     0.18100
H1073       H  0.22981565  0.72258741  0.18987173     0.18100
N1074       N  0.19400946  0.65957571  0.15323966    -0.88600
H1075       H  0.09871898  0.70872937  0.23962707     0.35500
H1076       H  0.13237384  0.75040725  0.22611555     0.40600
H1077       H  0.21169044  0.65417889  0.16885238     0.40200
H1078       H  0.21054144  0.67935063  0.13461331     0.35100
C1079       C  0.48470977  0.80313986  0.18158121    -0.26700
C1080       C  0.51089610  0.84138981  0.18262010    -0.14700
C1081       C  0.54218606  0.85450942  0.20501391     0.35900
C1082       C  0.54870989  0.82846847  0.22295411    -0.26100
C1083       C  0.52415757  0.78995110  0.21930508    -0.15300
C1084       C  0.49080749  0.77728599  0.20008444     0.37000
N1085       N  0.46492987  0.73806109  0.19696306    -0.89600
H1086       H  0.46046673  0.79319308  0.16459460     0.18100
H1087       H  0.57427607  0.83804445  0.23796844     0.18100
N1088       N  0.56849026  0.89374552  0.20752149    -0.88600
H1089       H  0.44244768  0.73326574  0.18073302     0.35500
H1090       H  0.45366643  0.72856771  0.22177926     0.40600
H1091       H  0.58140658  0.90237391  0.18314090     0.40200
H1092       H  0.58974090  0.89864954  0.22540682     0.35100
C1093       C  0.43906399  0.59519152  0.14899201    -0.26700
C1094       C  0.45588512  0.57543604  0.13491888    -0.14700
C1095       C  0.49518165  0.59154738  0.13557467     0.35900
C1096       C  0.51694985  0.62624090  0.15219674    -0.26100
C1097       C  0.49989241  0.64450140  0.16926552    -0.15300
C1098       C  0.46046793  0.62941628  0.16638082     0.37000
N1099       N  0.44101865  0.64719130  0.18175338    -0.89600
H1100       H  0.40878787  0.58279200  0.14855025     0.18100
H1101       H  0.54699818  0.63736468  0.15423396     0.18100
N1102       N  0.51288419  0.57203695  0.12048138    -0.88600
H1103       H  0.42744136  0.65284830  0.16152963     0.35500
H1104       H  0.45972277  0.67300484  0.19263232     0.40600
H1105       H  0.52823845  0.56797249  0.14008981     0.40200
H1106       H  0.53174870  0.58909747  0.10143506     0.35100
C1107       C  0.77419283  0.49736789  0.30815038    -0.26700
C1108       C  0.78791863  0.53197243  0.29186105    -0.14700
C1109       C  0.82719990  0.55582201  0.28918442     0.35900
C1110       C  0.85154848  0.54606108  0.30606674    -0.26100
C1111       C  0.83746998  0.51340117  0.32578902    -0.15300
C1112       C  0.79864826  0.48810369  0.32547206     0.37000
N1113       N  0.78386370  0.45376614  0.34420386    -0.89600
H1114       H  0.74420284  0.47893439  0.31018001     0.18100
H1115       H  0.88139336  0.56557281  0.30608609     0.18100
N1116       N  0.84319848  0.59084813  0.27113752    -0.88600
H1117       H  0.76907725  0.43184179  0.32648535     0.35500
H1118       H  0.76487242  0.45338454  0.36282613     0.40600
H1119       H  0.82261434  0.59444583  0.25851920     0.40200
H1120       H  0.86035382  0.58986419  0.25125997     0.35100
C1121       C  0.82165524  0.66206290  0.20878613    -0.26700
C1122       C  0.78602456  0.63329092  0.19913488    -0.14700
C1123       C  0.77794964  0.62462236  0.16321460     0.35900
C1124       C  0.80562694  0.64433205  0.13797720    -0.26100
C1125       C  0.84149073  0.67278913  0.14773132    -0.15300
C1126       C  0.84931178  0.68164601  0.18368393     0.37000
N1127       N  0.88552418  0.71010511  0.19512389    -0.89600
H1128       H  0.82860730  0.66894800  0.23618093     0.18100
H1129       H  0.79879275  0.63746585  0.11056615     0.18100
N1130       N  0.74162921  0.59612062  0.15208996    -0.88600
H1131       H  0.89649506  0.69800842  0.21203241     0.35500
H1132       H  0.88207637  0.73013563  0.20929483     0.40600
H1133       H  0.74497106  0.57611626  0.13775767     0.40200
H1134       H  0.73047143  0.60818703  0.13536320     0.35100
C1135       C  0.60535765  0.62957880  0.23357032    -0.26700
C1136       C  0.60493767  0.65163099  0.26174164    -0.14700
C1137       C  0.62400604  0.65317379  0.29297818     0.35900
C1138       C  0.64401996  0.63365381  0.29468198    -0.26100
C1139       C  0.64590895  0.61281691  0.26601640    -0.15300
C1140       C  0.62519007  0.60966570  0.23549441     0.37000
N1141       N  0.62583069  0.58798590  0.20599551    -0.89600
H1142       H  0.59087318  0.62870616  0.20958149     0.18100
H1143       H  0.65924021  0.63576149  0.31851880     0.18100
N1144       N  0.62517637  0.67534296  0.32286765    -0.88600
H1145       H  0.61082816  0.59039051  0.18502433     0.35500
H1146       H  0.61151526  0.55994948  0.21325946     0.40600
H1147       H  0.60960256  0.68887974  0.31898043     0.40200
H1148       H  0.65301599  0.69624095  0.32638812     0.35100
C1149       C  0.63778871  0.47064968  0.35583646    -0.26700
C1150       C  0.64651855  0.50795715  0.35169198    -0.14700
C1151       C  0.62351322  0.52070549  0.36726812     0.35900
C1152       C  0.59043408  0.49504560  0.38417063    -0.26100
C1153       C  0.58006450  0.45707037  0.38583508    -0.15300
C1154       C  0.60470724  0.44497855  0.37295224     0.37000
N1155       N  0.59463149  0.40627201  0.37470529    -0.89600
H1156       H  0.65551242  0.46101548  0.34358045     0.18100
H1157       H  0.57128779  0.50417639  0.39397650     0.18100
N1158       N  0.63182645  0.55870597  0.36276633    -0.88600
H1159       H  0.61590941  0.40205060  0.36414786     0.35500
H1160       H  0.57111495  0.39134642  0.35876086     0.40600
H1161       H  0.65663287  0.57580367  0.37635003     0.40200
H1162       H  0.61102161  0.56309612  0.37425577     0.35100
C1163       C  0.11706199  0.42572214  0.69617574    -0.26700
C1164       C  0.13201964  0.45917598  0.67752460    -0.14700
C1165       C  0.17109975  0.48420208  0.67922111     0.35900
C1166       C  0.19454971  0.47407217  0.69710596    -0.26100
C1167       C  0.17996199  0.43891033  0.71246738    -0.15300
C1168       C  0.14077356  0.41513514  0.71335534     0.37000
N1169       N  0.12546283  0.37965068  0.73040340    -0.89600
H1170       H  0.08716296  0.40655412  0.69507132     0.18100
H1171       H  0.22460837  0.49255939  0.69659485     0.18100
N1172       N  0.18781841  0.51978093  0.66249081    -0.88600
H1173       H  0.09621513  0.36534328  0.72853645     0.35500
H1174       H  0.13194385  0.38484676  0.75702993     0.40600
H1175       H  0.17452621  0.53435159  0.67177062     0.40200
H1176       H  0.18359533  0.51582303  0.63550593     0.35100
C1177       C  0.34388006  0.44824483  0.64451371    -0.26700
C1178       C  0.32288466  0.46303299  0.66011560    -0.14700
C1179       C  0.33435409  0.50126613  0.65630967     0.35900
C1180       C  0.36863981  0.52475005  0.63965189    -0.26100
C1181       C  0.39169663  0.51055268  0.62774731    -0.15300
C1182       C  0.37847311  0.47181218  0.62883515     0.37000
N1183       N  0.40112138  0.45664912  0.61562218    -0.89600
H1184       H  0.33518541  0.41889326  0.64737174     0.18100
H1185       H  0.37881103  0.55453074  0.63871122     0.18100
N1186       N  0.31206207  0.51627441  0.67103635    -0.88600
H1187       H  0.38569633  0.43666595  0.59645672     0.35500
H1188       H  0.40629767  0.44311124  0.63611630     0.40600
H1189       H  0.28631712  0.50368778  0.65791578     0.40200
H1190       H  0.32449112  0.54488608  0.66625656     0.35100
C1191       C  0.47892153  0.19338400  0.80972575    -0.26700
C1192       C  0.44363813  0.18018716  0.79430252    -0.14700
C1193       C  0.41941480  0.14127419  0.79108938     0.35900
C1194       C  0.42941612  0.11653497  0.80624576    -0.26100
C1195       C  0.46271350  0.12992627  0.82545118    -0.15300
C1196       C  0.48887522  0.16870124  0.82533429     0.37000
N1197       N  0.52489260  0.18405523  0.84213773    -0.89600
H1198       H  0.49783385  0.22317673  0.81182604     0.18100
H1199       H  0.40938460  0.08693609  0.80589383     0.18100
N1200       N  0.38392322  0.12620137  0.77364750    -0.88600
H1201       H  0.54529493  0.19839959  0.82314436     0.35500
H1202       H  0.53004963  0.16296479  0.85073068     0.40600
H1203       H  0.38854272  0.13674157  0.74824567     0.40200
H1204       H  0.36710631  0.13493375  0.78685649     0.35100
C1205       C  0.33437514  0.34802148  0.72254857    -0.26700
C1206       C  0.32051300  0.35848013  0.75182479    -0.14700
C1207       C  0.32784209  0.34996031  0.78559470     0.35900
C1208       C  0.34721642  0.32992177  0.78929040    -0.26100
C1209       C  0.36030843  0.31865635  0.75999838    -0.15300
C1210       C  0.35440817  0.32841636  0.72626871     0.37000
N1211       N  0.36727885  0.31702096  0.69589972    -0.89600
H1212       H  0.32870877  0.35440247  0.69657471     0.18100
H1213       H  0.35146235  0.32244523  0.81531986     0.18100
N1214       N  0.31433902  0.35960287  0.81646647    -0.88600
H1215       H  0.36080515  0.32653968  0.67310157     0.35500
H1216       H  0.35243609  0.28785993  0.69457402     0.40600
H1217       H  0.28521826  0.34774390  0.81455889     0.40200
H1218       H  0.32617736  0.38861970  0.81766578     0.35100
C1219       C  0.50700448  0.33413669  0.85359222    -0.26700
C1220       C  0.46916814  0.32444337  0.84955492    -0.14700
C1221       C  0.45601529  0.34710941  0.86486619     0.35900
C1222       C  0.48130434  0.38048971  0.88167896    -0.26100
C1223       C  0.51960973  0.39152169  0.88374914    -0.15300
C1224       C  0.53236464  0.36732520  0.87113229     0.37000
N1225       N  0.57138802  0.37796952  0.87357522    -0.89600
H1226       H  0.51708782  0.31671634  0.84152638     0.18100
H1227       H  0.47134341  0.39900264  0.89132502     0.18100
N1228       N  0.41764162  0.33794651  0.86071360    -0.88600
H1229       H  0.57640081  0.35775667  0.86176422     0.35500
H1230       H  0.57780177  0.37853717  0.90010349     0.40600
H1231       H  0.41706087  0.35983622  0.84752886     0.40200
H1232       H  0.40623546  0.33619496  0.88560231     0.35100
C1233       C  0.44811570  0.83228647  0.64192927    -0.26700
C1234       C  0.46255538  0.86948538  0.63177525    -0.14700
C1235       C  0.50175420  0.89426768  0.63452640     0.35900
C1236       C  0.52462700  0.88209646  0.65063666    -0.26100
C1237       C  0.50934074  0.84591649  0.66388837    -0.15300
C1238       C  0.47112480  0.82050231  0.65832631     0.37000
N1239       N  0.45530976  0.78305405  0.67068608    -0.89600
H1240       H  0.41831772  0.81302076  0.63963712     0.18100
H1241       H  0.55404467  0.90182029  0.65489306     0.18100
N1242       N  0.51907380  0.93209587  0.62232430    -0.88600
H1243       H  0.44338749  0.76495318  0.64931519     0.35500
H1244       H  0.43384167  0.77838689  0.68827949     0.40600
H1245       H  0.50001663  0.93713980  0.60866043     0.40200
H1246       H  0.53946491  0.93530312  0.60397291     0.35100
C1247       C  0.25965330  0.82965818  0.71554385    -0.26700
C1248       C  0.24844550  0.79143986  0.71582349    -0.14700
C1249       C  0.27290832  0.77920801  0.70273012     0.35900
C1250       C  0.30654712  0.80506884  0.68650367    -0.26100
C1251       C  0.31650159  0.84290339  0.68404890    -0.15300
C1252       C  0.29358538  0.85561289  0.69995073     0.37000
N1253       N  0.30336548  0.89423984  0.69784739    -0.89600
H1254       H  0.24082568  0.83896227  0.72582828     0.18100
H1255       H  0.32416920  0.79539324  0.67410180     0.18100
N1256       N  0.26213695  0.74026926  0.70338342    -0.88600
H1257       H  0.28370517  0.89904226  0.71116447     0.35500
H1258       H  0.30174479  0.89998202  0.67154317     0.40600
H1259       H  0.26124631  0.73283429  0.72957988     0.40200
H1260       H  0.28259328  0.73571838  0.69135558     0.35100
C1261       C  0.15354828  0.13437682  0.50892818    -0.26700
C1262       C  0.17892139  0.17293210  0.50950303    -0.14700
C1263       C  0.21094751  0.18671622  0.53091117     0.35900
C1264       C  0.21854692  0.16169502  0.54924242    -0.26100
C1265       C  0.19442079  0.12302011  0.54690276    -0.15300
C1266       C  0.16081350  0.10926473  0.52772541     0.37000
N1267       N  0.13586892  0.06973510  0.52502312    -0.89600
H1268       H  0.12888530  0.12369047  0.49241231     0.18100
H1269       H  0.24465834  0.17238440  0.56360298     0.18100
N1270       N  0.23748290  0.22574778  0.53173131    -0.88600
H1271       H  0.11305883  0.06410484  0.50891596     0.35500
H1272       H  0.12494493  0.06029045  0.54995390     0.40600
H1273       H  0.26326898  0.22905337  0.52324379     0.40200
H1274       H  0.24059678  0.23495985  0.55772792     0.35100
C1275       C  0.28452091  0.96896317  0.55963884    -0.26700
C1276       C  0.27727734  0.98560955  0.58882104    -0.14700
C1277       C  0.29017463  0.98243462  0.62200188     0.35900
C1278       C  0.31159808  0.96421698  0.62502512    -0.26100
C1279       C  0.31978601  0.94835741  0.59570587    -0.15300
C1280       C  0.30502315  0.94975958  0.56278896     0.37000
N1281       N  0.31269291  0.93372149  0.53237608    -0.89600
H1282       H  0.27474736  0.97166196  0.53409966     0.18100
H1283       H  0.32281954  0.96324012  0.65037060     0.18100
N1284       N  0.28295947  0.99914388  0.65219627    -0.88600
H1285       H  0.30154445  0.93902696  0.50996281     0.35500
H1286       H  0.29842667  0.90476771  0.53538240     0.40600
H1287       H  0.29702719  0.02804571  0.64872754     0.40200
H1288       H  0.29424765  0.99414703  0.67468260     0.35100
C1289       C  0.13192860  0.96906282  0.49511946    -0.26700
C1290       C  0.17032345  0.98041572  0.49725696    -0.14700
C1291       C  0.18440160  0.95946211  0.47982394     0.35900
C1292       C  0.15923760  0.92569216  0.46328653    -0.26100
C1293       C  0.12053865  0.91303671  0.46320420    -0.15300
C1294       C  0.10682974  0.93560195  0.47794691     0.37000
N1295       N  0.06730544  0.92321137  0.47763434    -0.89600
H1296       H  0.12124937  0.98524546  0.50866159     0.18100
H1297       H  0.16959367  0.90816498  0.45195345     0.18100
N1298       N  0.22365126  0.97081017  0.48167218    -0.88600
H1299       H  0.06189599  0.94316686  0.48944029     0.35500
H1300       H  0.05408548  0.89932581  0.49304355     0.40600
H1301       H  0.23814282  0.99566692  0.46779448     0.40200
H1302       H  0.22913604  0.95131626  0.46898051     0.35100
C1303       C  0.32916814  0.15930859  0.63858086    -0.26700
C1304       C  0.29817760  0.12510543  0.64771560    -0.14700
C1305       C  0.28893317  0.11760099  0.68352420     0.35900
C1306       C  0.31005382  0.14453159  0.70910359    -0.26100
C1307       C  0.34077419  0.17895743  0.69991244    -0.15300
C1308       C  0.35040303  0.18614352  0.66412923     0.37000
N1309       N  0.38142939  0.22086117  0.65335739    -0.89600
H1310       H  0.33671922  0.16567928  0.61130852     0.18100
H1311       H  0.30263495  0.13810403  0.73639246     0.18100
N1312       N  0.25857679  0.08241475  0.69424107    -0.88600
H1313       H  0.37141742  0.23362504  0.63619431     0.35500
H1314       H  0.40022510  0.21509140  0.63962834     0.40600
H1315       H  0.23955557  0.08746065  0.70841744     0.40200
H1316       H  0.26930237  0.06996165  0.71101020     0.35100
C1317       C  0.82486739  0.43807036  0.87203143    -0.26700
C1318       C  0.85910264  0.45100327  0.88942928    -0.14700
C1319       C  0.88369932  0.48972514  0.89283844     0.35900
C1320       C  0.87515579  0.51481304  0.87580419    -0.26100
C1321       C  0.84308970  0.50152602  0.85478316    -0.15300
C1322       C  0.81687062  0.46308601  0.85431979     0.37000
N1323       N  0.78299362  0.44927865  0.83438687    -0.89600
H1324       H  0.80593245  0.40833219  0.86940027     0.18100
H1325       H  0.89523402  0.54438724  0.87622509     0.18100
N1326       N  0.91841331  0.50310231  0.91158365    -0.88600
H1327       H  0.76037054  0.43494894  0.85135772     0.35500
H1328       H  0.78254275  0.43017874  0.81582854     0.40600
H1329       H  0.91182752  0.49543689  0.93774390     0.40200
H1330       H  0.93363629  0.53226321  0.91128229     0.35100
C1331       C  0.81715261  0.25887994  0.78978041    -0.26700
C1332       C  0.77882398  0.23991994  0.79807860    -0.14700
C1333       C  0.76482688  0.25582125  0.82285633     0.35900
C1334       C  0.78999573  0.28840818  0.84089969    -0.26100
C1335       C  0.82879245  0.30589274  0.83462696    -0.15300
C1336       C  0.84236896  0.29180612  0.80773006     0.37000
N1337       N  0.88186161  0.30920406  0.80049355    -0.89600
H1338       H  0.82785667  0.24636213  0.77109525     0.18100
H1339       H  0.77923686  0.29917541  0.86127225     0.18100
N1340       N  0.72582011  0.23833708  0.83225672    -0.88600
H1341       H  0.88703728  0.29562994  0.77967176     0.35500
H1342       H  0.89495986  0.30566967  0.82242473     0.40600
H1343       H  0.70971087  0.21478942  0.81676584     0.40200
H1344       H  0.71631460  0.25717731  0.82676104     0.35100
C1345       C  0.98352821  0.47167998  0.04014177    -0.26700
C1346       C  0.00838383  0.50855639  0.03037321    -0.14700
C1347       C  0.01283492  0.51763713  0.99435700     0.35900
C1348       C  0.99237068  0.48974463  0.96921448    -0.26100
C1349       C  0.96703845  0.45308809  0.97909293    -0.15300
C1350       C  0.96307488  0.44383982  0.01498824     0.37000
N1351       N  0.93862362  0.40611624  0.02581410    -0.89600
H1352       H  0.98050434  0.46431754  0.06755784     0.18100
H1353       H  0.99523946  0.49702069  0.94177653     0.18100
N1354       N  0.03749041  0.55524492  0.98334547    -0.88600
H1355       H  0.93868865  0.40405687  0.05304556     0.35500
H1356       H  0.94955756  0.38963023  0.01580618     0.40600
H1357       H  0.02635574  0.57182699  0.99262164     0.40200
H1358       H  0.03798544  0.55701920  0.95606060     0.35100
C1359       C  0.13206734  0.15393542  0.00725882    -0.26700
C1360       C  0.17103628  0.17539003  0.00267473    -0.14700
C1361       C  0.18538627  0.20427474  0.97775600     0.35900
C1362       C  0.16073565  0.21274607  0.95993292    -0.26100
C1363       C  0.12210091  0.19282645  0.96637552    -0.15300
C1364       C  0.10739376  0.16244633  0.98935080     0.37000
N1365       N  0.06786936  0.14260683  0.99669771    -0.89600
H1366       H  0.12100219  0.13181368  0.02639789     0.18100
H1367       H  0.17198735  0.23653611  0.94263801     0.18100
N1368       N  0.22481617  0.22731776  0.97206992    -0.88600
H1369       H  0.06173074  0.12192594  0.01530568     0.35500
H1370       H  0.05405047  0.12887906  0.97369531     0.40600
H1371       H  0.23573390  0.21038955  0.96333588     0.40200
H1372       H  0.23756571  0.23988472  0.99583323     0.35100
C1373       C  0.12606546  0.28199955  0.83324553    -0.26700
C1374       C  0.13039264  0.29838969  0.86666958    -0.14700
C1375       C  0.16111477  0.33465546  0.87238994     0.35900
C1376       C  0.18566695  0.35346667  0.84489151    -0.26100
C1377       C  0.18101538  0.33723322  0.81138216    -0.15300
C1378       C  0.15107251  0.30066025  0.80577355     0.37000
N1379       N  0.14588146  0.28244020  0.77230647    -0.89600
H1380       H  0.10309726  0.25412191  0.82840662     0.18100
H1381       H  0.20859166  0.38134145  0.84992675     0.18100
N1382       N  0.16838638  0.35339482  0.90561449    -0.88600
H1383       H  0.12163448  0.25632724  0.77219580     0.35500
H1384       H  0.16832382  0.27733040  0.76859043     0.40600
H1385       H  0.17269092  0.33741557  0.92423222     0.40200
H1386       H  0.14526836  0.35639207  0.91267339     0.35100
C1387       C  0.97795655  0.29197555  0.95488952    -0.26700
C1388       C  0.98752037  0.27813265  0.92502024    -0.14700
C1389       C  0.97352804  0.28078829  0.89207438     0.35900
C1390       C  0.95216882  0.29886679  0.88953972    -0.26100
C1391       C  0.94345393  0.31348602  0.91933489    -0.15300
C1392       C  0.95561265  0.30913706  0.95247967     0.37000
N1393       N  0.94730037  0.32422242  0.98322163    -0.89600
H1394       H  0.98848107  0.28990556  0.98025496     0.18100
H1395       H  0.94300127  0.30230115  0.86395312     0.18100
N1396       N  0.98202348  0.26714459  0.86062645    -0.88600
H1397       H  0.95999766  0.32034515  0.00527284     0.35500
H1398       H  0.91839037  0.30881502  0.98743835     0.40600
H1399       H  0.97104098  0.23834332  0.86271133     0.40200
H1400       H  0.01117437  0.27978026  0.85806523     0.35100
C1401       C  0.97228200  0.13691428  0.02011197    -0.26700
C1402       C  0.98111000  0.17388160  0.01370136    -0.14700
C1403       C  0.95712072  0.18700424  0.02597648     0.35900
C1404       C  0.92293839  0.16188306  0.04154562    -0.26100
C1405       C  0.91262806  0.12413241  0.04556659    -0.15300
C1406       C  0.93861214  0.11211935  0.03658143     0.37000
N1407       N  0.93046813  0.07444535  0.04159621    -0.89600
H1408       H  0.99073133  0.12677833  0.01066637     0.18100
H1409       H  0.90326113  0.17131546  0.04882148     0.18100
N1410       N  0.96597897  0.22487784  0.01967212    -0.88600
H1411       H  0.90572529  0.05693941  0.02822338     0.35500
H1412       H  0.92603027  0.06858587  0.06827361     0.40600
H1413       H  0.98989628  0.24227342  0.03429594     0.40200
H1414       H  0.94458088  0.22966536  0.02893682     0.35100
C1415       C  0.48262201  0.08953061  0.39055522    -0.26700
C1416       C  0.52138699  0.11209816  0.38577057    -0.14700
C1417       C  0.53509853  0.14524790  0.36621633     0.35900
C1418       C  0.50948122  0.15306221  0.34933714    -0.26100
C1419       C  0.47073340  0.12871471  0.35155467    -0.15300
C1420       C  0.45699625  0.09746707  0.37354650     0.37000
N1421       N  0.41735767  0.07230045  0.37622233    -0.89600
H1422       H  0.47232582  0.06399263  0.40533035     0.18100
H1423       H  0.52002902  0.17715051  0.33245277     0.18100
N1424       N  0.57442488  0.16978576  0.36025033    -0.88600
H1425       H  0.41202879  0.05083923  0.39366254     0.35500
H1426       H  0.40787657  0.05962988  0.35170810     0.40600
H1427       H  0.59108157  0.16122788  0.37356622     0.40200
H1428       H  0.58108444  0.19593433  0.37063905     0.35100
C1429       C  0.67197724  0.17096280  0.33294429    -0.26700
C1430       C  0.66005794  0.13259650  0.33155607    -0.14700
C1431       C  0.67970135  0.11954430  0.31048544     0.35900
C1432       C  0.71250509  0.14552547  0.29323811    -0.26100
C1433       C  0.72565612  0.18403630  0.29651302    -0.15300
C1434       C  0.70447870  0.19682764  0.31536945     0.37000
N1435       N  0.71768455  0.23613178  0.31891954    -0.89600
H1436       H  0.65692006  0.18091704  0.34929652     0.18100
H1437       H  0.72913325  0.13588624  0.27888676     0.18100
N1438       N  0.66793070  0.08037209  0.30876845    -0.88600
H1439       H  0.69956183  0.24102375  0.33473385     0.35500
H1440       H  0.71691953  0.24619457  0.29411424     0.40600
H1441       H  0.67136166  0.07226540  0.33370864     0.40200
H1442       H  0.68538012  0.07545533  0.29202890     0.35100
C1443       C  0.45475173  0.95421322  0.50098129    -0.26700
C1444       C  0.46296529  0.96870842  0.53538660    -0.14700
C1445       C  0.49758410  0.00147277  0.54162642     0.35900
C1446       C  0.52242578  0.01858316  0.51389477    -0.26100
C1447       C  0.51403551  0.00435772  0.47942337    -0.15300
C1448       C  0.47952842  0.97145981  0.47319596     0.37000
N1449       N  0.46843285  0.95485404  0.43911147    -0.89600
H1450       H  0.42859780  0.92906451  0.49535142     0.18100
H1451       H  0.54862029  0.04366235  0.51958535     0.18100
N1452       N  0.50868397  0.01821617  0.57565641    -0.88600
H1453       H  0.48833272  0.94790073  0.42987671     0.35500
H1454       H  0.46708650  0.97412810  0.42235643     0.40600
H1455       H  0.50956270  0.99891310  0.59263570     0.40200
H1456       H  0.48905058  0.02569085  0.58461664     0.35100
C1457       C  0.80843172  0.85639544  0.48439035    -0.26700
C1458       C  0.77171536  0.84287358  0.47230005    -0.14700
C1459       C  0.74600874  0.80437817  0.47366199     0.35900
C1460       C  0.75655550  0.78022968  0.48927267    -0.26100
C1461       C  0.79195999  0.79435069  0.50464321    -0.15300
C1462       C  0.81853119  0.83240519  0.50118102     0.37000
N1463       N  0.85516163  0.84693176  0.51612805    -0.89600
H1464       H  0.82828617  0.88600154  0.48341746     0.18100
H1465       H  0.73593197  0.75102173  0.49215203     0.18100
N1466       N  0.70863378  0.79007293  0.46057291    -0.88600
H1467       H  0.85908470  0.86779912  0.53423209     0.35500
H1468       H  0.87485457  0.85925910  0.49612843     0.40600
H1469       H  0.68994321  0.77700349  0.48116151     0.40200
H1470       H  0.70395933  0.76984707  0.44148171     0.35100
C1471       C  0.67705130  0.98014792  0.39615229    -0.26700
C1472       C  0.69184916  0.98122615  0.42932224    -0.14700
C1473       C  0.68774514  0.00257479  0.45625478     0.35900
C1474       C  0.66825623  0.02203509  0.44987723    -0.26100
C1475       C  0.65164921  0.01947627  0.41721674    -0.15300
C1476       C  0.65654964  0.99866213  0.38996513     0.37000
N1477       N  0.64053010  0.99593882  0.35606968    -0.89600
H1478       H  0.67990278  0.96347336  0.37543267     0.18100
H1479       H  0.66478498  0.03789298  0.47100577     0.18100
N1480       N  0.70310358  0.00424769  0.49023285    -0.88600
H1481       H  0.66217816  0.00580600  0.33766018     0.35500
H1482       H  0.62238200  0.96772345  0.35054190     0.40600
H1483       H  0.68121587  0.99456354  0.50839278     0.40200
H1484       H  0.72181709  0.03220158  0.49620811     0.35100
C1485       C  0.84185592  0.00681291  0.51131279    -0.26700
C1486       C  0.80366632  0.98931046  0.52021610    -0.14700
C1487       C  0.79220879  0.00439265  0.54812696     0.35900
C1488       C  0.81833131  0.03849945  0.56360647    -0.26100
C1489       C  0.85570691  0.05753826  0.55205735    -0.15300
C1490       C  0.86772749  0.04102635  0.52637309     0.37000
N1491       N  0.90556757  0.06045533  0.51369335    -0.89600
H1492       H  0.85113037  0.99517850  0.49044105     0.18100
H1493       H  0.80887763  0.05135086  0.58315930     0.18100
N1494       N  0.75413765  0.98707599  0.55987959    -0.88600
H1495       H  0.90916820  0.08430446  0.50078265     0.35500
H1496       H  0.91014412  0.04433890  0.49500324     0.40600
H1497       H  0.74656583  0.96021077  0.56832018     0.40200
H1498       H  0.73701104  0.98501385  0.53881704     0.35100
C1499       C  0.68140185  0.84711712  0.34102790    -0.26700
C1500       C  0.66754081  0.84025054  0.37554512    -0.14700
C1501       C  0.63252050  0.80812964  0.38178690     0.35900
C1502       C  0.61255933  0.78433475  0.35386317    -0.26100
C1503       C  0.62635493  0.79139947  0.31934016    -0.15300
C1504       C  0.66129351  0.82343197  0.31296459     0.37000
N1505       N  0.67632513  0.83216556  0.27811268    -0.89600
H1506       H  0.70811402  0.87153108  0.33561398     0.18100
H1507       H  0.58590293  0.75988708  0.35942045     0.18100
N1508       N  0.61653747  0.79843172  0.41605791    -0.88600
H1509       H  0.70298621  0.85571539  0.27825315     0.35500
H1510       H  0.65911974  0.83932139  0.26370846     0.40600
H1511       H  0.61203623  0.81982550  0.42565882     0.40200
H1512       H  0.63534089  0.79545308  0.43238580     0.35100
loop_ 
_geom_bond_atom_site_label_1 
_geom_bond_atom_site_label_2 
_geom_bond_distance 
_geom_bond_site_symmetry_2 
_ccdc_geom_bond_type 
O1            V9   1.906       .  S
O1           C11   1.265       .  A
O2            V9   1.907       .  S
O2           C12   1.266       .  A
O3            V9   1.882       .  S
O3           C13   1.262       .  A
O4            V9   1.886       .  S
O4           C14   1.262       .  A
O5           V10   1.916       .  S
O5           C14   1.269       .  A
O6           V10   1.920       .  S
O6           C13   1.268       .  A
O7           V10   1.886       .  S
O7           C12   1.260       .  A
O8           V10   1.884       .  S
O8           C11   1.261       .  A
V9           V10   2.086       .  T
C11        C1458   1.466       .  S
C12        C1472   1.467       .  S
C13        C1486   1.486       .  S
C14        C1500   1.493       .  S
O15          V23   1.906       .  S
O15          C25   1.265       .  A
O16          V23   1.908       .  S
O16          C26   1.268       .  A
O17          V23   1.886       .  S
O17          C27   1.261       .  A
O18          V23   1.887       .  S
O18          C28   1.262       .  A
O19          V24   1.912       .  S
O19          C28   1.268       .  A
O20          V24   1.913       .  S
O20          C27   1.267       .  A
O21          V24   1.886       .  S
O21          C26   1.260       .  A
O22          V24   1.883       .  S
O22          C25   1.260       .  A
V23          V24   2.087       .  T
C25        C1416   1.465       .  S
C26        C1475   1.477       .  S
C27        C1430   1.475       .  S
C28        C1447   1.492       .  S
O29          V37   1.904       .  S
O29          C39   1.264       .  A
O30          V37   1.910       .  S
O30          C40   1.267       .  A
O31          V37   1.894       .  S
O31          C41   1.264       .  A
O32          V37   1.891       .  S
O32          C42   1.262       .  A
O33          V38   1.906       .  S
O33          C42   1.265       .  A
O34          V38   1.905       .  S
O34          C41   1.266       .  A
O35          V38   1.887       .  S
O35          C40   1.262       .  A
O36          V38   1.885       .  S
O36          C39   1.260       .  A
V37          V38   2.087       .  T
C39        C1363   1.462       .  S
C40        C1388   1.479   1_455  S
C41        C1374   1.493       .  S
C42        C1402   1.469   1_456  S
O43          V51   1.912       .  S
O43          C53   1.266       .  A
O44          V51   1.912       .  S
O44          C54   1.268       .  A
O45          V51   1.892       .  S
O45          C55   1.262       .  A
O46          V51   1.892       .  S
O46          C56   1.263       .  A
O47          V52   1.914       .  S
O47          C56   1.268       .  A
O48          V52   1.913       .  S
O48          C55   1.269       .  A
O49          V52   1.887       .  S
O49          C54   1.260       .  A
O50          V52   1.884       .  S
O50          C53   1.260       .  A
V51          V52   2.087       .  T
C53        C1318   1.468       .  S
C54        C1391   1.474       .  S
C55        C1349   1.486       .  S
C56        C1335   1.485       .  S
O57          V65   1.919       .  S
O57          C67   1.268       .  A
O58          V65   1.922       .  S
O58          C68   1.270       .  A
O59          V65   1.894       .  S
O59          C69   1.262       .  A
O60          V65   1.890       .  S
O60          C70   1.261       .  A
O61          V66   1.909       .  S
O61          C70   1.267       .  A
O62          V66   1.910       .  S
O62          C69   1.269       .  A
O63          V66   1.889       .  S
O63          C68   1.260       .  A
O64          V66   1.888       .  S
O64          C67   1.261       .  A
V65          V66   2.087       .  T
C67        C1265   1.477       .  S
C68        C1276   1.482   1_545  S
C69        C1304   1.488       .  S
C70        C1290   1.474   1_545  S
O71          V79   1.914       .  S
O71          C81   1.267       .  A
O72          V79   1.920       .  S
O72          C82   1.270       .  A
O73          V79   1.888       .  S
O73          C83   1.262       .  A
O74          V79   1.888       .  S
O74          C84   1.261       .  A
O75          V80   1.915       .  S
O75          C84   1.268       .  A
O76          V80   1.913       .  S
O76          C83   1.268       .  A
O77          V80   1.893       .  S
O77          C82   1.262       .  A
O78          V80   1.892       .  S
O78          C81   1.262       .  A
V79          V80   2.085       .  T
C81        C1234   1.478       .  S
C82        C1279   1.490       .  S
C83        C1444   1.492       .  S
C84        C1251   1.476       .  S
O85          V93   1.913       .  S
O85          C95   1.267       .  A
O86          V93   1.918       .  S
O86          C96   1.270       .  A
O87          V93   1.891       .  S
O87          C97   1.261       .  A
O88          V93   1.891       .  S
O88          C98   1.262       .  A
O89          V94   1.911       .  S
O89          C98   1.269       .  A
O90          V94   1.911       .  S
O90          C97   1.267       .  A
O91          V94   1.892       .  S
O91          C96   1.262       .  A
O92          V94   1.887       .  S
O92          C95   1.261       .  A
V93          V94   2.087       .  T
C95        C1192   1.472       .  S
C96        C1209   1.485       .  S
C97        C1220   1.473       .  S
C98        C1307   1.488       .  S
O99         V107   1.914       .  S
O99         C109   1.267       .  A
O100        V107   1.918       .  S
O100        C110   1.269       .  A
O101        V107   1.891       .  S
O101        C111   1.262       .  A
O102        V107   1.894       .  S
O102        C112   1.263       .  A
O103        V108   1.905       .  S
O103        C112   1.267       .  A
O104        V108   1.909       .  S
O104        C111   1.266       .  A
O105        V108   1.893       .  S
O105        C110   1.262       .  A
O106        V108   1.892       .  S
O106        C109   1.262       .  A
V107        V108   2.086       .  T
C109       C1167   1.476       .  S
C110       C1206   1.484       .  S
C111       C1178   1.471       .  S
C112       C1377   1.491       .  S
O113        V121   1.911       .  S
O113        C123   1.266       .  A
O114        V121   1.915       .  S
O114        C124   1.268       .  A
O115        V121   1.897       .  S
O115        C125   1.263       .  A
O116        V121   1.892       .  S
O116        C126   1.262       .  A
O117        V122   1.908       .  S
O117        C126   1.266       .  A
O118        V122   1.903       .  S
O118        C125   1.267       .  A
O119        V122   1.886       .  S
O119        C124   1.262       .  A
O120        V122   1.887       .  S
O120        C123   1.261       .  A
V121        V122   2.087       .  T
C123       C1108   1.471       .  S
C124       C1139   1.485       .  S
C125       C1122   1.486       .  S
C126       C1150   1.472       .  S
O127        V135   1.913       .  S
O127        C137   1.267       .  A
O128        V135   1.912       .  S
O128        C138   1.267       .  A
O129        V135   1.895       .  S
O129        C139   1.263       .  A
O130        V135   1.891       .  S
O130        C140   1.262       .  A
O131        V136   1.912       .  S
O131        C140   1.267       .  A
O132        V136   1.908       .  S
O132        C139   1.268       .  A
O133        V136   1.886       .  S
O133        C138   1.260       .  A
O134        V136   1.888       .  S
O134        C137   1.261       .  A
V135        V136   2.087       .  T
C137       C1083   1.472       .  S
C138       C1136   1.471       .  S
C139       C1503   1.492       .  S
C140       C1097   1.479       .  S
O141        V149   1.915       .  S
O141        C151   1.267       .  A
O142        V149   1.918       .  S
O142        C152   1.269       .  A
O143        V149   1.890       .  S
O143        C153   1.262       .  A
O144        V149   1.893       .  S
O144        C154   1.262       .  A
O145        V150   1.912       .  S
O145        C154   1.269       .  A
O146        V150   1.918       .  S
O146        C153   1.268       .  A
O147        V150   1.886       .  S
O147        C152   1.262       .  A
O148        V150   1.885       .  S
O148        C151   1.260       .  A
V149        V150   2.085       .  T
C151       C1038   1.471       .  S
C152       C1055   1.489       .  S
C153       C1066   1.481       .  S
C154       C1346   1.489       .  S
O155        V163   1.911       .  S
O155        C165   1.266       .  A
O156        V163   1.915       .  S
O156        C166   1.268       .  A
O157        V163   1.886       .  S
O157        C167   1.261       .  A
O158        V163   1.890       .  S
O158        C168   1.262       .  A
O159        V164   1.911       .  S
O159        C168   1.268       .  A
O160        V164   1.917       .  S
O160        C167   1.269       .  A
O161        V164   1.888       .  S
O161        C166   1.260       .  A
O162        V164   1.884       .  S
O162        C165   1.260       .  A
V163        V164   2.086       .  T
C165       C1010   1.466       .  S
C166       C1052   1.474       .  S
C167       C1024   1.481       .  S
C168       C1125   1.489       .  S
O169        V177   1.912       .  S
O169        C179   1.266       .  A
O170        V177   1.917       .  S
O170        C180   1.269       .  A
O171        V177   1.884       .  S
O171        C181   1.261       .  A
O172        V177   1.888       .  S
O172        C182   1.261       .  A
O173        V178   1.910       .  S
O173        C182   1.269       .  A
O174        V178   1.914       .  S
O174        C181   1.267       .  A
O175        V178   1.892       .  S
O175        C180   1.262       .  A
O176        V178   1.888       .  S
O176        C179   1.260       .  A
V177        V178   2.087       .  T
C179        C971   1.469       .  S
C180        C996   1.486       .  S
C181       C1080   1.474       .  S
C182        C982   1.488       .  S
O183        V191   1.915       .  S
O183        C193   1.267       .  A
O184        V191   1.916       .  S
O184        C194   1.269       .  A
O185        V191   1.888       .  S
O185        C195   1.261       .  A
O186        V191   1.888       .  S
O186        C196   1.262       .  A
O187        V192   1.907       .  S
O187        C196   1.267       .  A
O188        V192   1.908       .  S
O188        C195   1.266       .  A
O189        V192   1.890       .  S
O189        C194   1.260       .  A
O190        V192   1.887       .  S
O190        C193   1.262       .  A
V191        V192   2.087       .  T
C193       C1405   1.478       .  S
C194        C999   1.478   1_545  S
C195        C954   1.469   1_544  S
C196        C940   1.485       .  S
O197        V205   1.915       .  S
O197        C207   1.267       .  A
O198        V205   1.919       .  S
O198        C208   1.269       .  A
O199        V205   1.883       .  S
O199        C209   1.261       .  A
O200        V205   1.882       .  S
O200        C210   1.260       .  A
O201        V206   1.917       .  S
O201        C210   1.269       .  A
O202        V206   1.913       .  S
O202        C209   1.269       .  A
O203        V206   1.890       .  S
O203        C208   1.260       .  A
O204        V206   1.887       .  S
O204        C207   1.260       .  A
V205        V206   2.087       .  T
C207       C1433   1.473       .  S
C208        C912   1.476       .  S
C209        C943   1.485       .  S
C210        C929   1.479       .  S
O211        V219   1.914       .  S
O211        C221   1.267       .  A
O212        V219   1.919       .  S
O212        C222   1.270       .  A
O213        V219   1.888       .  S
O213        C223   1.262       .  A
O214        V219   1.881       .  S
O214        C224   1.260       .  A
O215        V220   1.918       .  S
O215        C224   1.269       .  A
O216        V220   1.913       .  S
O216        C223   1.269       .  A
O217        V220   1.892       .  S
O217        C222   1.262       .  A
O218        V220   1.887       .  S
O218        C221   1.260       .  A
V219        V220   2.085       .  T
C221        C884   1.471       .  S
C222        C915   1.496       .  S
C223        C898   1.493       .  S
C224       C1041   1.478       .  S
O225        V233   1.915       .  S
O225        C235   1.267       .  A
O226        V233   1.921       .  S
O226        C236   1.270       .  A
O227        V233   1.890       .  S
O227        C237   1.261       .  A
O228        V233   1.892       .  S
O228        C238   1.263       .  A
O229        V234   1.913       .  S
O229        C238   1.269       .  A
O230        V234   1.917       .  S
O230        C237   1.269       .  A
O231        V234   1.887       .  S
O231        C236   1.261       .  A
O232        V234   1.885       .  S
O232        C235   1.259       .  A
V233        V234   2.086       .  T
C235        C859   1.469       .  S
C236        C870   1.488       .  S
C237       C1262   1.481       .  S
C238        C901   1.494       .  S
O239        V247   1.918       .  S
O239        C249   1.269       .  A
O240        V247   1.921       .  S
O240        C250   1.270       .  A
O241        V247   1.881       .  S
O241        C251   1.259       .  A
O242        V247   1.883       .  S
O242        C252   1.259       .  A
O243        V248   1.912       .  S
O243        C252   1.269       .  A
O244        V248   1.913       .  S
O244        C251   1.268       .  A
O245        V248   1.886       .  S
O245        C250   1.259       .  A
O246        V248   1.881       .  S
O246        C249   1.259       .  A
V247        V248   2.088       .  T
C249       C1153   1.474       .  S
C250        C873   1.476       .  S
C251        C842   1.472       .  S
C252        C828   1.479       .  S
O253        V261   1.915       .  S
O253        C263   1.267       .  A
O254        V261   1.918       .  S
O254        C264   1.270       .  A
O255        V261   1.883       .  S
O255        C265   1.260       .  A
O256        V261   1.882       .  S
O256        C266   1.260       .  A
O257        V262   1.914       .  S
O257        C266   1.268       .  A
O258        V262   1.911       .  S
O258        C265   1.269       .  A
O259        V262   1.890       .  S
O259        C264   1.261       .  A
O260        V262   1.884       .  S
O260        C263   1.260       .  A
V261        V262   2.087       .  T
C263       C1181   1.473       .  S
C264        C800   1.484       .  S
C265        C831   1.480       .  S
C266        C817   1.475       .  S
O267        V275   1.910       .  S
O267        C277   1.265       .  A
O268        V275   1.915       .  S
O268        C278   1.268       .  A
O269        V275   1.890       .  S
O269        C279   1.262       .  A
O270        V275   1.884       .  S
O270        C280   1.260       .  A
O271        V276   1.907       .  S
O271        C280   1.265       .  A
O272        V276   1.907       .  S
O272        C279   1.268       .  A
O273        V276   1.891       .  S
O273        C278   1.261       .  A
O274        V276   1.887       .  S
O274        C277   1.261       .  A
V275        V276   2.088       .  T
C277        C772   1.467       .  S
C278        C803   1.479       .  S
C279        C789   1.486       .  S
C280       C1461   1.464       .  S
O281        V289   1.909       .  S
O281        C291   1.266       .  A
O282        V289   1.915       .  S
O282        C292   1.269       .  A
O283        V289   1.886       .  S
O283        C293   1.261       .  A
O284        V289   1.890       .  S
O284        C294   1.262       .  A
O285        V290   1.908       .  S
O285        C294   1.268       .  A
O286        V290   1.911       .  S
O286        C293   1.266       .  A
O287        V290   1.895       .  S
O287        C292   1.263       .  A
O288        V290   1.889       .  S
O288        C291   1.262       .  A
V289        V290   2.087       .  T
C291        C744   1.470       .  S
C292        C758   1.486       .  S
C293       C1321   1.472       .  S
C294        C786   1.486       .  S
O295        V303   1.913       .  S
O295        C305   1.267       .  A
O296        V303   1.918       .  S
O296        C306   1.269       .  A
O297        V303   1.894       .  S
O297        C307   1.263       .  A
O298        V303   1.896       .  S
O298        C308   1.264       .  A
O299        V304   1.909       .  S
O299        C308   1.268       .  A
O300        V304   1.911       .  S
O300        C307   1.267       .  A
O301        V304   1.892       .  S
O301        C306   1.262       .  A
O302        V304   1.892       .  S
O302        C305   1.262       .  A
V303        V304   2.086       .  T
C305       C1248   1.478       .  S
C306        C761   1.483       .  S
C307        C716   1.481       .  S
C308        C733   1.489       .  S
O309        V317   1.913       .  S
O309        C319   1.267       .  A
O310        V317   1.916       .  S
O310        C320   1.269       .  A
O311        V317   1.884       .  S
O311        C321   1.260       .  A
O312        V317   1.884       .  S
O312        C322   1.260       .  A
O313        V318   1.915       .  S
O313        C322   1.268       .  A
O314        V318   1.915       .  S
O314        C321   1.270       .  A
O315        V318   1.894       .  S
O315        C320   1.261       .  A
O316        V318   1.888       .  S
O316        C319   1.262       .  A
V317        V318   2.086       .  T
C319        C691   1.479       .  S
C320        C705   1.482       .  S
C321        C985   1.488   1_545  S
C322       C1195   1.475       .  S
O323        V331   1.916       .  S
O323        C333   1.268       .  A
O324        V331   1.923       .  S
O324        C334   1.270       .  A
O325        V331   1.893       .  S
O325        C335   1.263       .  A
O326        V331   1.891       .  S
O326        C336   1.262       .  A
O327        V332   1.913       .  S
O327        C336   1.268       .  A
O328        V332   1.910       .  S
O328        C335   1.268       .  A
O329        V332   1.888       .  S
O329        C334   1.261       .  A
O330        V332   1.887       .  S
O330        C333   1.260       .  A
V331        V332   2.086       .  T
C333       C1027   1.473       .  S
C334        C702   1.487       .  S
C335        C730   1.488       .  S
C336        C674   1.481   1_556  S
O337        V345   1.914       .  S
O337        C347   1.267       .  A
O338        V345   1.916       .  S
O338        C348   1.268       .  A
O339        V345   1.893       .  S
O339        C349   1.262       .  A
O340        V345   1.887       .  S
O340        C350   1.261       .  A
O341        V346   1.909       .  S
O341        C350   1.266       .  A
O342        V346   1.905       .  S
O342        C349   1.268       .  A
O343        V346   1.885       .  S
O343        C348   1.259       .  A
O344        V346   1.885       .  S
O344        C347   1.261       .  A
V345        V346   2.088       .  T
C347       C1223   1.475       .  S
C348        C646   1.469       .  S
C349        C663   1.484       .  S
C350        C747   1.471       .  S
O351        V359   1.908       .  S
O351        C361   1.266       .  A
O352        V359   1.914       .  S
O352        C362   1.268       .  A
O353        V359   1.883       .  S
O353        C363   1.262       .  A
O354        V359   1.881       .  S
O354        C364   1.260       .  A
O355        V360   1.916   1_554  S
O355        C364   1.268   1_554  A
O356        V360   1.912       .  S
O356        C363   1.268       .  A
O357        V360   1.887       .  S
O357        C362   1.263       .  A
O358        V360   1.885       .  S
O358        C361   1.261       .  A
V359        V360   2.085       .  T
C361        C957   1.468       .  S
C362        C649   1.492       .  S
C363        C632   1.489       .  S
C364       C1013   1.476   1_556  S
O365        V373   1.917       .  S
O365        C375   1.268       .  A
O366        V373   1.920       .  S
O366        C376   1.270       .  A
O367        V373   1.886       .  S
O367        C377   1.260       .  A
O368        V373   1.891       .  S
O368        C378   1.261       .  A
O369        V374   1.906       .  S
O369        C378   1.268       .  A
O370        V374   1.912       .  S
O370        C377   1.267       .  A
O371        V374   1.886       .  S
O371        C376   1.260       .  A
O372        V374   1.887       .  S
O372        C375   1.260       .  A
V373        V374   2.086       .  T
C375       C1332   1.473       .  S
C376        C618   1.482       .  S
C377        C688   1.469       .  S
C378        C604   1.486       .  S
O379        V387   1.914       .  S
O379        C389   1.267       .  A
O380        V387   1.917       .  S
O380        C390   1.269       .  A
O381        V387   1.888       .  S
O381        C391   1.261       .  A
O382        V387   1.894       .  S
O382        C392   1.263       .  A
O383        V388   1.905       .  S
O383        C392   1.267       .  A
O384        V388   1.915       .  S
O384        C391   1.268       .  A
O385        V388   1.886       .  S
O385        C390   1.261       .  A
O386        V388   1.886       .  S
O386        C389   1.261       .  A
V387        V388   2.084       .  T
C389        C814   1.469       .  S
C390        C621   1.483       .  S
C391       C1237   1.474       .  S
C392        C635   1.490       .  S
O393        V401   1.917       .  S
O393        C403   1.268       .  A
O394        V401   1.919       .  S
O394        C404   1.270       .  A
O395        V401   1.881       .  S
O395        C405   1.259       .  A
O396        V401   1.885       .  S
O396        C406   1.259       .  A
O397        V402   1.919       .  S
O397        C406   1.270       .  A
O398        V402   1.914       .  S
O398        C405   1.270       .  A
O399        V402   1.891       .  S
O399        C404   1.261       .  A
O400        V402   1.887       .  S
O400        C403   1.260       .  A
V401        V402   2.086       .  T
C403       C1489   1.472       .  S
C404        C590   1.488       .  S
C405        C607   1.485       .  S
C406        C856   1.483       .  S
O407        V415   1.916       .  S
O407        C417   1.267       .  A
O408        V415   1.919       .  S
O408        C418   1.270       .  A
O409        V415   1.890       .  S
O409        C419   1.262       .  A
O410        V415   1.888       .  S
O410        C420   1.261       .  A
O411        V416   1.918       .  S
O411        C420   1.269       .  A
O412        V416   1.915       .  S
O412        C419   1.269       .  A
O413        V416   1.892       .  S
O413        C418   1.261       .  A
O414        V416   1.890       .  S
O414        C417   1.261       .  A
V415        V416   2.085       .  T
C417        C719   1.474       .  S
C418        C593   1.484       .  S
C419        C579   1.489       .  S
C420       C1164   1.479       .  S
O421        V429   1.909       .  S
O421        C431   1.266       .  A
O422        V429   1.916       .  S
O422        C432   1.269       .  A
O423        V429   1.886       .  S
O423        C433   1.261       .  A
O424        V429   1.890       .  S
O424        C434   1.262       .  A
O425        V430   1.913       .  S
O425        C434   1.269       .  A
O426        V430   1.914       .  S
O426        C433   1.268       .  A
O427        V430   1.889       .  S
O427        C432   1.261       .  A
O428        V430   1.888       .  S
O428        C431   1.260       .  A
V429        V430   2.087       .  T
C431        C926   1.468       .  S
C432        C562   1.481       .  S
C433       C1111   1.475       .  S
C434        C576   1.489       .  S
O435        V443   1.913       .  S
O435        C445   1.267       .  A
O436        V443   1.916       .  S
O436        C446   1.269       .  A
O437        V443   1.890       .  S
O437        C447   1.262       .  A
O438        V443   1.892       .  S
O438        C448   1.263       .  A
O439        V444   1.904       .  S
O439        C448   1.266       .  A
O440        V444   1.906       .  S
O440        C447   1.266       .  A
O441        V444   1.888       .  S
O441        C446   1.261       .  A
O442        V444   1.887       .  S
O442        C445   1.261       .  A
V443        V444   2.085       .  T
C445       C1293   1.473       .  S
C446        C565   1.480   1_455  S
C447        C775   1.474   1_455  S
C448        C551   1.490       .  S
O449        V457   1.911       .  S
O449        C459   1.266       .  A
O450        V457   1.916       .  S
O450        C460   1.269       .  A
O451        V457   1.887       .  S
O451        C461   1.262       .  A
O452        V457   1.884       .  S
O452        C462   1.261       .  A
O453        V458   1.907       .  S
O453        C462   1.266       .  A
O454        V458   1.904       .  S
O454        C461   1.267       .  A
O455        V458   1.892       .  S
O455        C460   1.262       .  A
O456        V458   1.887       .  S
O456        C459   1.261       .  A
V457        V458   2.087       .  T
C459        C845   1.469       .  S
C460        C534   1.489       .  S
C461        C520   1.483       .  S
C462       C1419   1.470       .  S
O463        V471   1.913       .  S
O463        C473   1.267       .  A
O464        V471   1.915       .  S
O464        C474   1.268       .  A
O465        V471   1.882       .  S
O465        C475   1.261       .  A
O466        V471   1.883       .  S
O466        C476   1.261       .  A
O467        V472   1.917       .  S
O467        C476   1.269       .  A
O468        V472   1.914       .  S
O468        C475   1.269       .  A
O469        V472   1.895       .  S
O469        C474   1.262       .  A
O470        V472   1.890       .  S
O470        C473   1.261       .  A
V471        V472   2.085       .  T
C473       C1069   1.473       .  S
C474        C537   1.480       .  S
C475        C548   1.489       .  S
C476        C968   1.485       .  S
O477        V485   1.914       .  S
O477        C487   1.266       .  A
O478        V485   1.917       .  S
O478        C488   1.269       .  A
O479        V485   1.883       .  S
O479        C489   1.261       .  A
O480        V485   1.889       .  S
O480        C490   1.262       .  A
O481        V486   1.902       .  S
O481        C490   1.266       .  A
O482        V486   1.906       .  S
O482        C489   1.266       .  A
O483        V486   1.887       .  S
O483        C488   1.262       .  A
O484        V486   1.885       .  S
O484        C487   1.260       .  A
V485        V486   2.087       .  T
C487        C677   1.468       .  S
C488        C509   1.489       .  S
C489       C1360   1.472       .  S
C490        C523   1.482       .  S
O491        V499   1.911       .  S
O491        C501   1.267       .  A
O492        V499   1.916       .  S
O492        C502   1.268       .  A
O493        V499   1.883       .  S
O493        C503   1.260       .  A
O494        V499   1.889       .  S
O494        C504   1.262       .  A
O495        V500   1.909       .  S
O495        C504   1.268       .  A
O496        V500   1.917       .  S
O496        C503   1.269       .  A
O497        V500   1.887       .  S
O497        C502   1.260       .  A
O498        V500   1.889       .  S
O498        C501   1.261       .  A
V499        V500   2.087       .  T
C501       C1094   1.471       .  S
C502        C506   1.473       .  S
C503        C887   1.478       .  S
C504        C660   1.485       .  S
C505        C506   1.403       .  A
C505        C510   1.410       .  A
C505        H512   1.084       .  S
C506        C507   1.407       .  A
C507        C508   1.403       .  A
C507        N514   1.439       .  S
C508        C509   1.407       .  A
C508        H513   1.083       .  S
C509        C510   1.413       .  A
C510        N511   1.432       .  S
N511        H515   1.045       .  S
N511        H516   1.046       .  S
N514        H517   1.046       .  S
N514        H518   1.046       .  S
C519        C520   1.407       .  A
C519        C524   1.404       .  A
C519        H526   1.083       .  S
C520        C521   1.411       .  A
C521        C522   1.404       .  A
C521        N528   1.438       .  S
C522        C523   1.407       .  A
C522        H527   1.083       .  S
C523        C524   1.411       .  A
C524        N525   1.438       .  S
N525        H529   1.046       .  S
N525        H530   1.045       .  S
N528        H531   1.046       .  S
N528        H532   1.046       .  S
C533        C534   1.409       .  A
C533        C538   1.402   1_545  A
C533        H540   1.084       .  S
C534        C535   1.416       .  A
C535        C536   1.404   1_545  A
C535        N542   1.432       .  S
C536        C537   1.405       .  A
C536        H541   1.084       .  S
C537        C538   1.410       .  A
C538        N539   1.432       .  S
N539        H543   1.045       .  S
N539        H544   1.046       .  S
N542        H545   1.042       .  S
N542        H546   1.048       .  S
C547        C548   1.408       .  A
C547        C552   1.396       .  A
C547        H554   1.084       .  S
C548        C549   1.412       .  A
C549        C550   1.408       .  A
C549        N556   1.437       .  S
C550        C551   1.410       .  A
C550        H555   1.083       .  S
C551        C552   1.416       .  A
C552        N553   1.433       .  S
N553        H557   1.045       .  S
N553        H558   1.045       .  S
N556        H559   1.045       .  S
N556        H560   1.046       .  S
C561        C562   1.407       .  A
C561        C566   1.400       .  A
C561        H568   1.084       .  S
C562        C563   1.409       .  A
C563        C564   1.408       .  A
C563        N570   1.437       .  S
C564        C565   1.407       .  A
C564        H569   1.084       .  S
C565        C566   1.411       .  A
C566        N567   1.432       .  S
N567        H571   1.046   1_655  S
N567        H572   1.045       .  S
N570        H573   1.045       .  S
N570        H574   1.046       .  S
C575        C576   1.409       .  A
C575        C580   1.405       .  A
C575        H582   1.084       .  S
C576        C577   1.409   1_655  A
C577        C578   1.405       .  A
C577        N584   1.432       .  S
C578        C579   1.409       .  A
C578        H583   1.084       .  S
C579        C580   1.409   1_455  A
C580        N581   1.432       .  S
N581        H585   1.047       .  S
N581        H586   1.045       .  S
N584        H587   1.045       .  S
N584        H588   1.046       .  S
C589        C590   1.409       .  A
C589        C594   1.410   1_655  A
C589        H596   1.084       .  S
C590        C591   1.413       .  A
C591        C592   1.402   1_655  A
C591        N598   1.432       .  S
C592        C593   1.406       .  A
C592        H597   1.084       .  S
C593        C594   1.409       .  A
C594        N595   1.437       .  S
N595        H599   1.046       .  S
N595        H600   1.045       .  S
N598        H601   1.045       .  S
N598        H602   1.046       .  S
C603        C604   1.402       .  A
C603        C608   1.403       .  A
C603        H610   1.083       .  S
C604        C605   1.418       .  A
C605        C606   1.407       .  A
C605        N612   1.438       .  S
C606        C607   1.402       .  A
C606        H611   1.083       .  S
C607        C608   1.417       .  A
C608        N609   1.439       .  S
N609        H613   1.046       .  S
N609        H614   1.045       .  S
N612        H615   1.046       .  S
N612        H616   1.046       .  S
C617        C618   1.404       .  A
C617        C622   1.405   1_545  A
C617        H624   1.084       .  S
C618        C619   1.413   1_545  A
C619        C620   1.404       .  A
C619        N626   1.439   1_565  S
C620        C621   1.404       .  A
C620        H625   1.084       .  S
C621        C622   1.415       .  A
C622        N623   1.432       .  S
N623        H627   1.045       .  S
N623        H628   1.046       .  S
N626        H629   1.046       .  S
N626        H630   1.046   1_545  S
C631        C632   1.407       .  A
C631        C636   1.402       .  A
C631        H638   1.083       .  S
C632        C633   1.413       .  A
C633        C634   1.408       .  A
C633        N640   1.438       .  S
C634        C635   1.410       .  A
C634        H639   1.083       .  S
C635        C636   1.413       .  A
C636        N637   1.438       .  S
N637        H641   1.046       .  S
N637        H642   1.046       .  S
N640        H643   1.045       .  S
N640        H644   1.046       .  S
C645        C646   1.403       .  A
C645        C650   1.412       .  A
C645        H652   1.084       .  S
C646        C647   1.406       .  A
C647        C648   1.394       .  A
C647        N654   1.433       .  S
C648        C649   1.409       .  A
C648        H653   1.083       .  S
C649        C650   1.418       .  A
C650        N651   1.437       .  S
N651        H655   1.046       .  S
N651        H656   1.045       .  S
N654        H657   1.044       .  S
N654        H658   1.046       .  S
C659        C660   1.404       .  A
C659        C664   1.407       .  A
C659        H666   1.084       .  S
C660        C661   1.416   1_554  A
C661        C662   1.404       .  A
C661        N668   1.438       .  S
C662        C663   1.402       .  A
C662        H667   1.084       .  S
C663        C664   1.416   1_556  A
C664        N665   1.438       .  S
N665        H669   1.046       .  S
N665        H670   1.045       .  S
N668        H671   1.046       .  S
N668        H672   1.046       .  S
C673        C674   1.403   1_545  A
C673        C678   1.404       .  A
C673        H680   1.084   1_545  S
C674        C675   1.412   1_565  A
C675        C676   1.402       .  A
C675        N682   1.433   1_544  S
C676        C677   1.399       .  A
C676        H681   1.085       .  S
C677        C678   1.416       .  A
C678        N679   1.439       .  S
N679        H683   1.046       .  S
N679        H684   1.044       .  S
N682        H685   1.046   1_565  S
N682        H686   1.046   1_556  S
C687        C688   1.403       .  A
C687        C692   1.408       .  A
C687        H694   1.083       .  S
C688        C689   1.407       .  A
C689        C690   1.403       .  A
C689        N696   1.438       .  S
C690        C691   1.406       .  A
C690        H695   1.084       .  S
C691        C692   1.411       .  A
C692        N693   1.437       .  S
N693        H697   1.046       .  S
N693        H698   1.045       .  S
N696        H699   1.045       .  S
N696        H700   1.045       .  S
C701        C702   1.408       .  A
C701        C706   1.408   1_565  A
C701        H708   1.084       .  S
C702        C703   1.408       .  A
C703        C704   1.409   1_565  A
C703        N710   1.432       .  S
C704        C705   1.407       .  A
C704        H709   1.084       .  S
C705        C706   1.409       .  A
C706        N707   1.438       .  S
N707        H711   1.046   1_556  S
N707        H712   1.045       .  S
N710        H713   1.045       .  S
N710        H714   1.046   1_565  S
C715        C716   1.404       .  A
C715        C720   1.409       .  A
C715        H722   1.084       .  S
C716        C717   1.411       .  A
C717        C718   1.404       .  A
C717        N724   1.432       .  S
C718        C719   1.400       .  A
C718        H723   1.083       .  S
C719        C720   1.411       .  A
C720        N721   1.438       .  S
N721        H725   1.045       .  S
N721        H726   1.046       .  S
N724        H727   1.045       .  S
N724        H728   1.046       .  S
C729        C730   1.407       .  A
C729        C734   1.407       .  A
C729        H736   1.083       .  S
C730        C731   1.411       .  A
C731        C732   1.408       .  A
C731        N738   1.438       .  S
C732        C733   1.408       .  A
C732        H737   1.083       .  S
C733        C734   1.412       .  A
C734        N735   1.438       .  S
N735        H739   1.046       .  S
N735        H740   1.046       .  S
N738        H741   1.046       .  S
N738        H742   1.045       .  S
C743        C744   1.400       .  A
C743        C748   1.406       .  A
C743        H750   1.084       .  S
C744        C745   1.408       .  A
C745        C746   1.402       .  A
C745        N752   1.433       .  S
C746        C747   1.401       .  A
C746        H751   1.084       .  S
C747        C748   1.412       .  A
C748        N749   1.437       .  S
N749        H753   1.046       .  S
N749        H754   1.045       .  S
N752        H755   1.046       .  S
N752        H756   1.046       .  S
C757        C758   1.408       .  A
C757        C762   1.410   1_655  A
C757        H764   1.084       .  S
C758        C759   1.411       .  A
C759        C760   1.408   1_655  A
C759        N766   1.437       .  S
C760        C761   1.406       .  A
C760        H765   1.084       .  S
C761        C762   1.409       .  A
C762        N763   1.438       .  S
N763        H767   1.046       .  S
N763        H768   1.046       .  S
N766        H769   1.046       .  S
N766        H770   1.045       .  S
C771        C772   1.400       .  A
C771        C776   1.403       .  A
C771        H778   1.084       .  S
C772        C773   1.409       .  A
C773        C774   1.405       .  A
C773        N780   1.438       .  S
C774        C775   1.403       .  A
C774        H779   1.084       .  S
C775        C776   1.410       .  A
C776        N777   1.433       .  S
N777        H781   1.046       .  S
N777        H782   1.046       .  S
N780        H783   1.045       .  S
N780        H784   1.046       .  S
C785        C786   1.403       .  A
C785        C790   1.404       .  A
C785        H792   1.084       .  S
C786        C787   1.415       .  A
C787        C788   1.403       .  A
C787        N794   1.433       .  S
C788        C789   1.403       .  A
C788        H793   1.084       .  S
C789        C790   1.415       .  A
C790        N791   1.433       .  S
N791        H795   1.045       .  S
N791        H796   1.046       .  S
N794        H797   1.045       .  S
N794        H798   1.046       .  S
C799        C800   1.408       .  A
C799        C804   1.408       .  A
C799        H806   1.084       .  S
C800        C801   1.410       .  A
C801        C802   1.409       .  A
C801        N808   1.437       .  S
C802        C803   1.406       .  A
C802        H807   1.084       .  S
C803        C804   1.408       .  A
C804        N805   1.438       .  S
N805        H809   1.045       .  S
N805        H810   1.045       .  S
N808        H811   1.045       .  S
N808        H812   1.046       .  S
C813        C814   1.404       .  A
C813        C818   1.406       .  A
C813        H820   1.084       .  S
C814        C815   1.405       .  A
C815        C816   1.405       .  A
C815        N822   1.437       .  S
C816        C817   1.406       .  A
C816        H821   1.084       .  S
C817        C818   1.409       .  A
C818        N819   1.437       .  S
N819        H823   1.046       .  S
N819        H824   1.045       .  S
N822        H825   1.045       .  S
N822        H826   1.046       .  S
C827        C828   1.401       .  A
C827        C832   1.404       .  A
C827        H834   1.084       .  S
C828        C829   1.415       .  A
C829        C830   1.405       .  A
C829        N836   1.438       .  S
C830        C831   1.402       .  A
C830        H835   1.084       .  S
C831        C832   1.416       .  A
C832        N833   1.438       .  S
N833        H837   1.046       .  S
N833        H838   1.045       .  S
N836        H839   1.046       .  S
N836        H840   1.046       .  S
C841        C842   1.401       .  A
C841        C846   1.406       .  A
C841        H848   1.084       .  S
C842        C843   1.411       .  A
C843        C844   1.402       .  A
C843        N850   1.432       .  S
C844        C845   1.399       .  A
C844        H849   1.084       .  S
C845        C846   1.412       .  A
C846        N847   1.438       .  S
N847        H851   1.045       .  S
N847        H852   1.045       .  S
N850        H853   1.046       .  S
N850        H854   1.046       .  S
C855        C856   1.405   1_455  A
C855        C860   1.409       .  A
C855        H862   1.084   1_455  S
C856        C857   1.421   1_655  A
C857        C858   1.397       .  A
C857        N864   1.432       .  S
C858        C859   1.396       .  A
C858        H863   1.085       .  S
C859        C860   1.410       .  A
C860        N861   1.437       .  S
N861        H865   1.046       .  S
N861        H866   1.046       .  S
N864        H867   1.035   1_455  S
N864        H868   1.049       .  S
C869        C870   1.404       .  A
C869        C874   1.412       .  A
C869        H876   1.083       .  S
C870        C871   1.416       .  A
C871        C872   1.403       .  A
C871        N878   1.432       .  S
C872        C873   1.396       .  A
C872        H877   1.084       .  S
C873        C874   1.413       .  A
C874        N875   1.438       .  S
N875        H879   1.045       .  S
N875        H880   1.046       .  S
N878        H881   1.046       .  S
N878        H882   1.045       .  S
C883        C884   1.404       .  A
C883        C888   1.408       .  A
C883        H890   1.084       .  S
C884        C885   1.407       .  A
C885        C886   1.405       .  A
C885        N892   1.438       .  S
C886        C887   1.406       .  A
C886        H891   1.084       .  S
C887        C888   1.410       .  A
C888        N889   1.437       .  S
N889        H893   1.046       .  S
N889        H894   1.045       .  S
N892        H895   1.046       .  S
N892        H896   1.045       .  S
C897        C898   1.409       .  A
C897        C902   1.407       .  A
C897        H904   1.083       .  S
C898        C899   1.413       .  A
C899        C900   1.407       .  A
C899        N906   1.438       .  S
C900        C901   1.409       .  A
C900        H905   1.083       .  S
C901        C902   1.414       .  A
C902        N903   1.438       .  S
N903        H907   1.046       .  S
N903        H908   1.046       .  S
N906        H909   1.045       .  S
N906        H910   1.046       .  S
C911        C912   1.399       .  A
C911        C916   1.405       .  A
C911        H918   1.084       .  S
C912        C913   1.418       .  A
C913        C914   1.407   1_655  A
C913        N920   1.439       .  S
C914        C915   1.406       .  A
C914        H919   1.084       .  S
C915        C916   1.418   1_455  A
C916        N917   1.433   1_655  S
N917        H921   1.045   1_455  S
N917        H922   1.046   1_455  S
N920        H923   1.043       .  S
N920        H924   1.046       .  S
C925        C926   1.397       .  A
C925        C930   1.403       .  A
C925        H932   1.084       .  S
C926        C927   1.413       .  A
C927        C928   1.402       .  A
C927        N934   1.433       .  S
C928        C929   1.403       .  A
C928        H933   1.084       .  S
C929        C930   1.415       .  A
C930        N931   1.437       .  S
N931        H935   1.046       .  S
N931        H936   1.043       .  S
N934        H937   1.046       .  S
N934        H938   1.045       .  S
C939        C940   1.408       .  A
C939        C944   1.406       .  A
C939        H946   1.083       .  S
C940        C941   1.412       .  A
C941        C942   1.404       .  A
C941        N948   1.438       .  S
C942        C943   1.407       .  A
C942        H947   1.083       .  S
C943        C944   1.411       .  A
C944        N945   1.438       .  S
N945        H949   1.046       .  S
N945        H950   1.046       .  S
N948        H951   1.045       .  S
N948        H952   1.046       .  S
C953        C954   1.400       .  A
C953        C958   1.401       .  A
C953        H960   1.084       .  S
C954        C955   1.414       .  A
C955        C956   1.399       .  A
C955        N962   1.430       .  S
C956        C957   1.399       .  A
C956        H961   1.084       .  S
C957        C958   1.408       .  A
C958        N959   1.433       .  S
N959        H963   1.045       .  S
N959        H964   1.046       .  S
N962        H965   1.044   1_556  S
N962        H966   1.046   1_565  S
C967        C968   1.407       .  A
C967        C972   1.402       .  A
C967        H974   1.084       .  S
C968        C969   1.413       .  A
C969        C970   1.411       .  A
C969        N976   1.437       .  S
C970        C971   1.403       .  A
C970        H975   1.084       .  S
C971        C972   1.406       .  A
C972        N973   1.439       .  S
N973        H977   1.046       .  S
N973        H978   1.046       .  S
N976        H979   1.045       .  S
N976        H980   1.046       .  S
C981        C982   1.402       .  A
C981        C986   1.404   1_565  A
C981        H988   1.083   1_565  S
C982        C983   1.419   1_554  A
C983        C984   1.408       .  A
C983        N990   1.438       .  S
C984        C985   1.403       .  A
C984        H989   1.083       .  S
C985        C986   1.417   1_566  A
C986        N987   1.438       .  S
N987        H991   1.046       .  S
N987        H992   1.046       .  S
N990        H993   1.046       .  S
N990        H994   1.046       .  S
C995        C996   1.408       .  A
C995       C1000   1.408       .  A
C995       H1002   1.084       .  S
C996        C997   1.414       .  A
C997        C998   1.403       .  A
C997       N1004   1.432       .  S
C998        C999   1.405       .  A
C998       H1003   1.084       .  S
C999       C1000   1.408       .  A
C1000      N1001   1.438   1_565  S
N1001      H1005   1.045   1_545  S
N1001      H1006   1.046       .  S
N1004      H1007   1.046       .  S
N1004      H1008   1.045       .  S
C1009      C1010   1.398       .  A
C1009      C1014   1.404       .  A
C1009      H1016   1.084       .  S
C1010      C1011   1.411       .  A
C1011      C1012   1.407       .  A
C1011      N1018   1.439       .  S
C1012      C1013   1.402       .  A
C1012      H1017   1.084       .  S
C1013      C1014   1.414       .  A
C1014      N1015   1.438   1_554  S
N1015      H1019   1.046       .  S
N1015      H1020   1.046   1_556  S
N1018      H1021   1.045       .  S
N1018      H1022   1.046       .  S
C1023      C1024   1.407   1_455  A
C1023      C1028   1.406   1_554  A
C1023      H1030   1.084   1_455  S
C1024      C1025   1.413   1_654  A
C1025      C1026   1.402       .  A
C1025      N1032   1.432   1_455  S
C1026      C1027   1.405       .  A
C1026      H1031   1.084       .  S
C1027      C1028   1.407       .  A
C1028      N1029   1.438       .  S
N1029      H1033   1.046   1_556  S
N1029      H1034   1.045       .  S
N1032      H1035   1.045       .  S
N1032      H1036   1.046       .  S
C1037      C1038   1.405       .  A
C1037      C1042   1.409       .  A
C1037      H1044   1.084       .  S
C1038      C1039   1.412       .  A
C1039      C1040   1.399       .  A
C1039      N1046   1.438       .  S
C1040      C1041   1.405       .  A
C1040      H1045   1.084       .  S
C1041      C1042   1.410       .  A
C1042      N1043   1.438       .  S
N1043      H1047   1.046       .  S
N1043      H1048   1.045       .  S
N1046      H1049   1.044       .  S
N1046      H1050   1.044       .  S
C1051      C1052   1.402   1_455  A
C1051      C1056   1.405       .  A
C1051      H1058   1.084       .  S
C1052      C1053   1.407       .  A
C1053      C1054   1.403       .  A
C1053      N1060   1.439       .  S
C1054      C1055   1.408   1_655  A
C1054      H1059   1.084       .  S
C1055      C1056   1.418       .  A
C1056      N1057   1.432       .  S
N1057      H1061   1.045       .  S
N1057      H1062   1.045       .  S
N1060      H1063   1.046       .  S
N1060      H1064   1.046       .  S
C1065      C1066   1.404       .  A
C1065      C1070   1.411       .  A
C1065      H1072   1.084       .  S
C1066      C1067   1.411       .  A
C1067      C1068   1.402       .  A
C1067      N1074   1.431       .  S
C1068      C1069   1.398       .  A
C1068      H1073   1.084       .  S
C1069      C1070   1.413       .  A
C1070      N1071   1.438       .  S
N1071      H1075   1.046       .  S
N1071      H1076   1.045       .  S
N1074      H1077   1.045       .  S
N1074      H1078   1.046       .  S
C1079      C1080   1.404       .  A
C1079      C1084   1.403       .  A
C1079      H1086   1.084       .  S
C1080      C1081   1.409       .  A
C1081      C1082   1.408       .  A
C1081      N1088   1.438       .  S
C1082      C1083   1.405       .  A
C1082      H1087   1.084       .  S
C1083      C1084   1.406       .  A
C1084      N1085   1.435       .  S
N1085      H1089   1.046       .  S
N1085      H1090   1.045       .  S
N1088      H1091   1.045       .  S
N1088      H1092   1.046       .  S
C1093      C1094   1.398       .  A
C1093      C1098   1.402       .  A
C1093      H1100   1.084       .  S
C1094      C1095   1.407       .  A
C1095      C1096   1.404       .  A
C1095      N1102   1.433       .  S
C1096      C1097   1.404       .  A
C1096      H1101   1.084       .  S
C1097      C1098   1.421       .  A
C1098      N1099   1.437       .  S
N1099      H1103   1.046       .  S
N1099      H1104   1.040       .  S
N1102      H1105   1.045       .  S
N1102      H1106   1.046       .  S
C1107      C1108   1.400       .  A
C1107      C1112   1.402       .  A
C1107      H1114   1.084       .  S
C1108      C1109   1.419       .  A
C1109      C1110   1.404       .  A
C1109      N1116   1.439       .  S
C1110      C1111   1.401       .  A
C1110      H1115   1.084       .  S
C1111      C1112   1.410       .  A
C1112      N1113   1.433       .  S
N1113      H1117   1.046       .  S
N1113      H1118   1.046       .  S
N1116      H1119   1.044       .  S
N1116      H1120   1.046       .  S
C1121      C1122   1.403       .  A
C1121      C1126   1.401       .  A
C1121      H1128   1.084       .  S
C1122      C1123   1.414       .  A
C1123      C1124   1.406       .  A
C1123      N1130   1.432       .  S
C1124      C1125   1.405       .  A
C1124      H1129   1.084       .  S
C1125      C1126   1.415       .  A
C1126      N1127   1.433       .  S
N1127      H1131   1.046       .  S
N1127      H1132   1.046       .  S
N1130      H1133   1.046       .  S
N1130      H1134   1.046       .  S
C1135      C1136   1.405       .  A
C1135      C1140   1.408       .  A
C1135      H1142   1.084       .  S
C1136      C1137   1.413       .  A
C1137      C1138   1.400       .  A
C1137      N1144   1.439       .  S
C1138      C1139   1.408       .  A
C1138      H1143   1.084       .  S
C1139      C1140   1.412       .  A
C1140      N1141   1.437       .  S
N1141      H1145   1.046       .  S
N1141      H1146   1.045       .  S
N1144      H1147   1.042       .  S
N1144      H1148   1.046       .  S
C1149      C1150   1.404       .  A
C1149      C1154   1.408       .  A
C1149      H1156   1.084       .  S
C1150      C1151   1.408       .  A
C1151      C1152   1.404       .  A
C1151      N1158   1.438       .  S
C1152      C1153   1.405       .  A
C1152      H1157   1.084       .  S
C1153      C1154   1.409       .  A
C1154      N1155   1.437       .  S
N1155      H1159   1.045       .  S
N1155      H1160   1.045       .  S
N1158      H1161   1.045       .  S
N1158      H1162   1.046       .  S
C1163      C1164   1.402       .  A
C1163      C1168   1.409       .  A
C1163      H1170   1.084       .  S
C1164      C1165   1.417       .  A
C1165      C1166   1.401       .  A
C1165      N1172   1.433       .  S
C1166      C1167   1.400       .  A
C1166      H1171   1.084       .  S
C1167      C1168   1.412       .  A
C1168      N1169   1.437       .  S
N1169      H1173   1.046       .  S
N1169      H1174   1.046       .  S
N1172      H1175   1.045       .  S
N1172      H1176   1.044       .  S
C1177      C1178   1.400       .  A
C1177      C1182   1.401       .  A
C1177      H1184   1.084       .  S
C1178      C1179   1.412       .  A
C1179      C1180   1.409       .  A
C1179      N1186   1.437       .  S
C1180      C1181   1.402       .  A
C1180      H1185   1.084       .  S
C1181      C1182   1.410       .  A
C1182      N1183   1.433       .  S
N1183      H1187   1.045       .  S
N1183      H1188   1.046       .  S
N1186      H1189   1.046       .  S
N1186      H1190   1.045       .  S
C1191      C1192   1.399       .  A
C1191      C1196   1.403       .  A
C1191      H1198   1.084       .  S
C1192      C1193   1.414       .  A
C1193      C1194   1.399       .  A
C1193      N1200   1.433       .  S
C1194      C1195   1.401       .  A
C1194      H1199   1.084       .  S
C1195      C1196   1.420       .  A
C1196      N1197   1.439       .  S
N1197      H1201   1.046       .  S
N1197      H1202   1.043       .  S
N1200      H1203   1.046       .  S
N1200      H1204   1.044       .  S
C1205      C1206   1.407       .  A
C1205      C1210   1.410       .  A
C1205      H1212   1.084       .  S
C1206      C1207   1.412       .  A
C1207      C1208   1.402       .  A
C1207      N1214   1.432       .  S
C1208      C1209   1.407       .  A
C1208      H1213   1.084       .  S
C1209      C1210   1.410       .  A
C1210      N1211   1.438       .  S
N1211      H1215   1.045       .  S
N1211      H1216   1.046       .  S
N1214      H1217   1.046       .  S
N1214      H1218   1.045       .  S
C1219      C1220   1.405       .  A
C1219      C1224   1.410       .  A
C1219      H1226   1.084       .  S
C1220      C1221   1.405       .  A
C1221      C1222   1.401       .  A
C1221      N1228   1.433       .  S
C1222      C1223   1.404       .  A
C1222      H1227   1.084       .  S
C1223      C1224   1.410       .  A
C1224      N1225   1.437       .  S
N1225      H1229   1.045       .  S
N1225      H1230   1.046       .  S
N1228      H1231   1.046       .  S
N1228      H1232   1.045       .  S
C1233      C1234   1.401       .  A
C1233      C1238   1.403       .  A
C1233      H1240   1.084       .  S
C1234      C1235   1.421       .  A
C1235      C1236   1.405       .  A
C1235      N1242   1.439       .  S
C1236      C1237   1.401       .  A
C1236      H1241   1.084       .  S
C1237      C1238   1.407       .  A
C1238      N1239   1.431       .  S
N1239      H1243   1.046       .  S
N1239      H1244   1.045       .  S
N1242      H1245   1.042       .  S
N1242      H1246   1.046       .  S
C1247      C1248   1.404       .  A
C1247      C1252   1.406       .  A
C1247      H1254   1.084       .  S
C1248      C1249   1.409       .  A
C1249      C1250   1.408       .  A
C1249      N1256   1.437       .  S
C1250      C1251   1.405       .  A
C1250      H1255   1.084       .  S
C1251      C1252   1.409       .  A
C1252      N1253   1.438       .  S
N1253      H1257   1.046       .  S
N1253      H1258   1.045       .  S
N1256      H1259   1.045       .  S
N1256      H1260   1.046       .  S
C1261      C1262   1.407       .  A
C1261      C1266   1.409       .  A
C1261      H1268   1.084       .  S
C1262      C1263   1.407       .  A
C1263      C1264   1.405       .  A
C1263      N1270   1.431       .  S
C1264      C1265   1.404       .  A
C1264      H1269   1.084       .  S
C1265      C1266   1.409       .  A
C1266      N1267   1.437       .  S
N1267      H1271   1.046       .  S
N1267      H1272   1.045       .  S
N1270      H1273   1.046       .  S
N1270      H1274   1.045       .  S
C1275      C1276   1.406       .  A
C1275      C1280   1.410       .  A
C1275      H1282   1.083       .  S
C1276      C1277   1.407       .  A
C1277      C1278   1.409       .  A
C1277      N1284   1.438       .  S
C1278      C1279   1.409       .  A
C1278      H1283   1.083       .  S
C1279      C1280   1.412       .  A
C1280      N1281   1.437       .  S
N1281      H1285   1.046       .  S
N1281      H1286   1.045       .  S
N1284      H1287   1.046   1_565  S
N1284      H1288   1.046       .  S
C1289      C1290   1.405       .  A
C1289      C1294   1.407       .  A
C1289      H1296   1.084       .  S
C1290      C1291   1.409       .  A
C1291      C1292   1.405       .  A
C1291      N1298   1.438       .  S
C1292      C1293   1.403       .  A
C1292      H1297   1.084       .  S
C1293      C1294   1.409       .  A
C1294      N1295   1.438       .  S
N1295      H1299   1.045       .  S
N1295      H1300   1.046       .  S
N1298      H1301   1.045       .  S
N1298      H1302   1.046       .  S
C1303      C1304   1.403       .  A
C1303      C1308   1.404       .  A
C1303      H1310   1.084       .  S
C1304      C1305   1.415       .  A
C1305      C1306   1.405       .  A
C1305      N1312   1.432       .  S
C1306      C1307   1.404       .  A
C1306      H1311   1.084       .  S
C1307      C1308   1.415       .  A
C1308      N1309   1.433       .  S
N1309      H1313   1.045       .  S
N1309      H1314   1.046       .  S
N1312      H1315   1.045       .  S
N1312      H1316   1.046       .  S
C1317      C1318   1.399       .  A
C1317      C1322   1.403       .  A
C1317      H1324   1.084       .  S
C1318      C1319   1.411       .  A
C1319      C1320   1.406       .  A
C1319      N1326   1.438       .  S
C1320      C1321   1.401       .  A
C1320      H1325   1.084       .  S
C1321      C1322   1.410       .  A
C1322      N1323   1.433       .  S
N1323      H1327   1.046       .  S
N1323      H1328   1.045       .  S
N1326      H1329   1.045       .  S
N1326      H1330   1.046       .  S
C1331      C1332   1.404       .  A
C1331      C1336   1.409       .  A
C1331      H1338   1.084       .  S
C1332      C1333   1.414       .  A
C1333      C1334   1.402       .  A
C1333      N1340   1.439       .  S
C1334      C1335   1.406       .  A
C1334      H1339   1.084       .  S
C1335      C1336   1.413       .  A
C1336      N1337   1.438       .  S
N1337      H1341   1.046       .  S
N1337      H1342   1.046       .  S
N1340      H1343   1.043       .  S
N1340      H1344   1.045       .  S
C1345      C1346   1.404   1_655  A
C1345      C1350   1.407       .  A
C1345      H1352   1.083       .  S
C1346      C1347   1.418   1_554  A
C1347      C1348   1.408   1_455  A
C1347      N1354   1.438       .  S
C1348      C1349   1.402       .  A
C1348      H1353   1.084       .  S
C1349      C1350   1.415   1_556  A
C1350      N1351   1.438       .  S
N1351      H1355   1.045       .  S
N1351      H1356   1.046       .  S
N1354      H1357   1.046       .  S
N1354      H1358   1.046       .  S
C1359      C1360   1.405       .  A
C1359      C1364   1.402   1_554  A
C1359      H1366   1.084       .  S
C1360      C1361   1.414   1_554  A
C1361      C1362   1.398       .  A
C1361      N1368   1.432       .  S
C1362      C1363   1.401       .  A
C1362      H1367   1.084       .  S
C1363      C1364   1.406       .  A
C1364      N1365   1.438       .  S
N1365      H1369   1.046   1_556  S
N1365      H1370   1.045       .  S
N1368      H1371   1.045       .  S
N1368      H1372   1.046       .  S
C1373      C1374   1.408       .  A
C1373      C1378   1.406       .  A
C1373      H1380   1.083       .  S
C1374      C1375   1.418       .  A
C1375      C1376   1.400       .  A
C1375      N1382   1.432       .  S
C1376      C1377   1.407       .  A
C1376      H1381   1.084       .  S
C1377      C1378   1.414       .  A
C1378      N1379   1.438       .  S
N1379      H1383   1.046       .  S
N1379      H1384   1.045       .  S
N1382      H1385   1.045       .  S
N1382      H1386   1.045       .  S
C1387      C1388   1.407       .  A
C1387      C1392   1.404       .  A
C1387      H1394   1.083       .  S
C1388      C1389   1.412       .  A
C1389      C1390   1.400       .  A
C1389      N1396   1.432       .  S
C1390      C1391   1.405       .  A
C1390      H1395   1.084       .  S
C1391      C1392   1.408       .  A
C1392      N1393   1.438       .  S
N1393      H1397   1.045   1_556  S
N1393      H1398   1.045       .  S
N1396      H1399   1.044       .  S
N1396      H1400   1.046   1_655  S
C1401      C1402   1.403       .  A
C1401      C1406   1.402       .  A
C1401      H1408   1.084       .  S
C1402      C1403   1.407       .  A
C1403      C1404   1.403       .  A
C1403      N1410   1.438       .  S
C1404      C1405   1.404       .  A
C1404      H1409   1.084       .  S
C1405      C1406   1.413       .  A
C1406      N1407   1.430       .  S
N1407      H1411   1.043       .  S
N1407      H1412   1.045       .  S
N1410      H1413   1.045       .  S
N1410      H1414   1.046       .  S
C1415      C1416   1.403       .  A
C1415      C1420   1.404       .  A
C1415      H1422   1.084       .  S
C1416      C1417   1.414       .  A
C1417      C1418   1.398       .  A
C1417      N1424   1.439       .  S
C1418      C1419   1.403       .  A
C1418      H1423   1.084       .  S
C1419      C1420   1.409       .  A
C1420      N1421   1.438       .  S
N1421      H1425   1.045       .  S
N1421      H1426   1.046       .  S
N1424      H1427   1.043       .  S
N1424      H1428   1.045       .  S
C1429      C1430   1.404       .  A
C1429      C1434   1.405       .  A
C1429      H1436   1.084       .  S
C1430      C1431   1.410       .  A
C1431      C1432   1.407       .  A
C1431      N1438   1.438       .  S
C1432      C1433   1.404       .  A
C1432      H1437   1.084       .  S
C1433      C1434   1.406       .  A
C1434      N1435   1.435       .  S
N1435      H1439   1.046       .  S
N1435      H1440   1.045       .  S
N1438      H1441   1.045       .  S
N1438      H1442   1.046       .  S
C1443      C1444   1.410       .  A
C1443      C1448   1.400       .  A
C1443      H1450   1.084       .  S
C1444      C1445   1.416   1_565  A
C1445      C1446   1.399       .  A
C1445      N1452   1.432       .  S
C1446      C1447   1.409       .  A
C1446      H1451   1.084       .  S
C1447      C1448   1.416   1_545  A
C1448      N1449   1.432       .  S
N1449      H1453   1.044       .  S
N1449      H1454   1.046       .  S
N1452      H1455   1.044   1_545  S
N1452      H1456   1.045       .  S
C1457      C1458   1.400       .  A
C1457      C1462   1.403       .  A
C1457      H1464   1.084       .  S
C1458      C1459   1.409       .  A
C1459      C1460   1.400       .  A
C1459      N1466   1.433       .  S
C1460      C1461   1.399       .  A
C1460      H1465   1.084       .  S
C1461      C1462   1.409       .  A
C1462      N1463   1.432       .  S
N1463      H1467   1.045       .  S
N1463      H1468   1.046       .  S
N1466      H1469   1.046       .  S
N1466      H1470   1.045       .  S
C1471      C1472   1.398       .  A
C1471      C1476   1.402       .  A
C1471      H1478   1.084       .  S
C1472      C1473   1.407   1_565  A
C1473      C1474   1.401       .  A
C1473      N1480   1.431       .  S
C1474      C1475   1.402       .  A
C1474      H1479   1.084       .  S
C1475      C1476   1.415   1_545  A
C1476      N1477   1.433       .  S
N1477      H1481   1.045   1_565  S
N1477      H1482   1.046       .  S
N1480      H1483   1.046   1_545  S
N1480      H1484   1.046       .  S
C1485      C1486   1.405   1_545  A
C1485      C1490   1.400       .  A
C1485      H1492   1.084   1_545  S
C1486      C1487   1.416   1_565  A
C1487      C1488   1.406       .  A
C1487      N1494   1.431   1_545  S
C1488      C1489   1.405       .  A
C1488      H1493   1.084       .  S
C1489      C1490   1.405       .  A
C1490      N1491   1.435       .  S
N1491      H1495   1.046       .  S
N1491      H1496   1.046       .  S
N1494      H1497   1.044       .  S
N1494      H1498   1.045       .  S
C1499      C1500   1.409       .  A
C1499      C1504   1.406       .  A
C1499      H1506   1.083       .  S
C1500      C1501   1.416       .  A
C1501      C1502   1.402       .  A
C1501      N1508   1.432       .  S
C1502      C1503   1.409       .  A
C1502      H1507   1.084       .  S
C1503      C1504   1.413       .  A
C1504      N1505   1.438       .  S
N1505      H1509   1.046       .  S
N1505      H1510   1.046       .  S
N1508      H1511   1.045       .  S
N1508      H1512   1.046       .  S
