geometry optimzed in LAMMPS
_audit_creation_date              2020-12-01 
_audit_creation_method            'lammps2cif' 
_symmetry_space_group_name_H-M    'P1' 
_symmetry_Int_Tables_number       1 
_symmetry_cell_setting            triclinic 
loop_ 
_symmetry_equiv_pos_as_xyz 
  x,y,z 
_cell_length_a                    38.27108638 
_cell_length_b                    38.33730013305428 
_cell_length_c                    75.15506934701406 
_cell_angle_alpha                 90.06154171542455 
_cell_angle_beta                  90.1043894029283 
_cell_angle_gamma                 90.18108433436909 
loop_ 
_atom_site_label 
_atom_site_type_symbol 
_atom_site_fract_x 
_atom_site_fract_y 
_atom_site_fract_z 
_atom_site_charge 
C1          C  0.89442152  0.67288583  0.32778400     0.80200
N2          N  0.90870101  0.65721521  0.34225607    -0.78100
C3          C  0.89782537  0.62491873  0.34725587     0.82700
N4          N  0.87206181  0.60843177  0.33787835    -0.78000
C5          C  0.85753635  0.62399185  0.32336221     0.82800
N6          N  0.86891117  0.65616309  0.31850264    -0.79700
C7          C  0.72482882  0.73385990  0.11609081     0.80200
N8          N  0.75411510  0.74827299  0.12324542    -0.78100
C9          C  0.76477516  0.78060905  0.11813949     0.82700
N10         N  0.74548112  0.79881009  0.10614874    -0.78000
C11         C  0.71612629  0.78440436  0.09903584     0.82800
N12         N  0.70577273  0.75212702  0.10412799    -0.79700
C13         C  0.37079434  0.75265706  0.33459391     0.80200
N14         N  0.38449528  0.77200659  0.34794394    -0.78100
C15         C  0.36958708  0.80267922  0.35254996     0.82700
N16         N  0.34125653  0.81435766  0.34347066    -0.78000
C17         C  0.32749230  0.79504944  0.32998684     0.83600
N18         N  0.34224474  0.76404735  0.32566462    -0.79700
C19         C  0.87613197  0.31021683  0.10941326     0.80200
N20         N  0.84516010  0.32284091  0.11529593    -0.78100
C21         C  0.82862395  0.30719032  0.12909563     0.82700
N22         N  0.84289055  0.27838276  0.13653343    -0.78000
C23         C  0.87388916  0.26558562  0.13083324     0.82800
N24         N  0.89066924  0.28196364  0.11732146    -0.79700
C25         C  0.12942603  0.89750214  0.26007159     0.42500
N26         N  0.11029704  0.93556121  0.24166632     0.01400
C27         C  0.95647012  0.02885119  0.24714934    -0.06500
H28         H  0.93704781  0.89833495  0.24186428     0.06900
C29         C  0.99648359  0.90252718  0.17997252    -0.06900
Co30       Co  0.04644892  0.97093146  0.25512060     0.74200
N31         N  0.98344219  0.93008180  0.24428817    -0.26000
Co32       Co  0.98031756  0.96660422  0.22374262     0.74100
C33         C  0.96433107  0.88668638  0.18659456     0.42600
N34         N  0.08174012  0.92989344  0.19037134     0.01000
N35         N  0.98074049  0.92745893  0.20446106     0.01100
N36         N  0.99939411  0.03005702  0.26782088    -0.46900
H37         H  0.08413503  0.90745876  0.27948606     0.06800
N38         N  0.00883179  0.93127761  0.25621223     0.01400
N39         N  0.97893843  0.00358922  0.20339867     0.01100
C40         C  0.96621063  0.04703031  0.18693986     0.42700
N41         N  0.10722573  0.93207421  0.20217901    -0.25500
C42         C  0.08700657  0.03947380  0.26299602    -0.06400
N43         N  0.13645765  0.91388133  0.24461825    -0.46600
N44         N  0.95655124  0.02969181  0.20175233    -0.46800
C45         C  0.11433048  0.05968051  0.25420517     0.42500
N46         N  0.00604517  0.00706975  0.25511727     0.01400
N47         N  0.10489091  0.00748735  0.20046878    -0.25500
N48         N  0.08696527  0.93517258  0.25455513    -0.26000
N49         N  0.08012493  0.00546687  0.18830436     0.01000
H50         H  0.15329113  0.03615269  0.20183811     0.06900
H51         H  0.01203441  0.03651146  0.16799216     0.06900
N52         N  0.98105016  0.00546515  0.24304127    -0.26100
N53         N  0.00438987  0.92759817  0.19173214    -0.25700
N54         N  0.10622746  0.01184541  0.23995492     0.01400
C55         C  0.97557139  0.88956751  0.26502599     0.42800
C56         C  0.13020717  0.90656580  0.19896756    -0.06900
N57         N  0.00262545  0.00327385  0.19063664    -0.25700
H58         H  0.00961000  0.89827409  0.16742701     0.06900
N59         N  0.00507907  0.90753576  0.26889835    -0.46900
H60         H  0.15424322  0.90214864  0.20619856     0.06900
C61         C  0.11604359  0.04366159  0.17817492     0.42600
C62         C  0.09682927  0.91187904  0.26683915    -0.06400
Co63       Co  0.10789912  0.97182705  0.22114932     0.73800
N64         N  0.08577789  0.90381575  0.17904332    -0.46600
C65         C  0.96883061  0.04532996  0.26348450     0.42900
N66         N  0.12517712  0.04086449  0.24005191    -0.46600
Co67       Co  0.04209708  0.96650123  0.18993662     0.73900
C68         C  0.99664375  0.02981315  0.17955465    -0.06900
C69         C  0.96107091  0.90462910  0.24877328    -0.06500
N70         N  0.08329050  0.01078372  0.25303934    -0.26000
N71         N  0.95587379  0.90398525  0.20165580    -0.46800
H72         H  0.93163568  0.03177013  0.24043210     0.06900
C73         C  0.12856404  0.03110898  0.19531702    -0.06900
Cl74       Cl  0.04418166  0.96891007  0.22249401    -0.49900
C75         C  0.11572039  0.88783301  0.18369154     0.42600
H76         H  0.07145000  0.04599493  0.27451774     0.06800
N77         N  0.08634777  0.02593808  0.17444070    -0.46600
C78         C  0.20371812  0.62658307  0.10235641     0.80200
N79         N  0.19276254  0.65864337  0.10777694    -0.78100
C80         C  0.20700701  0.67367502  0.12252145     0.82700
N81         N  0.23212363  0.65654307  0.13167316    -0.78000
C82         C  0.24308341  0.62448255  0.12659116     0.82800
N83         N  0.22870029  0.60945666  0.11186094    -0.79700
C84         C  0.76512052  0.14034204  0.32919656     0.80200
N85         N  0.75233029  0.17031629  0.32232681    -0.78100
C86         C  0.72281829  0.18466912  0.32900510     0.82700
N87         N  0.70588527  0.16877118  0.34270305    -0.78000
C88         C  0.71866755  0.13853780  0.34958876     0.82800
N89         N  0.74835236  0.12444518  0.34285118    -0.79700
C90         C  0.18809488  0.32094334  0.33597877     0.80200
N91         N  0.17456068  0.29386675  0.32652348    -0.78100
C92         C  0.19157274  0.28195531  0.31189312     0.82700
N93         N  0.22224551  0.29691646  0.30694476    -0.78000
C94         C  0.23603913  0.32364021  0.31656911     0.82800
N95         N  0.21886704  0.33552628  0.33108135    -0.79700
C96         C  0.37642976  0.14348541  0.10480382     0.80200
N97         N  0.39013864  0.17210473  0.11293121    -0.78100
C98         C  0.37240229  0.18758590  0.12643155     0.82700
N99         N  0.34128308  0.17437579  0.13182676    -0.78000
C100        C  0.32764454  0.14582460  0.12372791     0.82800
N101        N  0.34518433  0.13049760  0.11017628    -0.79700
C102        C  0.63831974  0.54246607  0.26132118     0.42500
N103        N  0.58861028  0.53424322  0.24850638     0.01400
C104        C  0.48355920  0.38851279  0.25614833    -0.06500
H105        H  0.61203180  0.35945428  0.24145518     0.06900
C106        C  0.59363836  0.43264365  0.18269356    -0.06900
Co107      Co  0.55305476  0.47067891  0.26322741     0.74200
N108        N  0.58624684  0.40812799  0.24697085    -0.26000
Co109      Co  0.54310646  0.40895598  0.23009605     0.74100
C110        C  0.61301698  0.40158368  0.18754620     0.42600
N111        N  0.57040659  0.51374666  0.19674876     0.01000
N112        N  0.57484156  0.41146362  0.20761502     0.01100
N113        N  0.48943929  0.43054041  0.27712445    -0.46900
H114        H  0.63056530  0.49506015  0.27957260     0.06800
N115        N  0.58999829  0.43136573  0.25976404     0.01400
N116        N  0.49965882  0.41038145  0.21347151     0.01100
C117        C  0.45656945  0.39316945  0.19718182     0.42700
N118        N  0.57442703  0.53746877  0.20931115    -0.25500
C119        C  0.49605272  0.51650482  0.28041388    -0.06400
N120        N  0.61648020  0.55513061  0.24864244    -0.46600
N121        N  0.47718725  0.38452714  0.21108031    -0.46800
C122        C  0.47982120  0.54981304  0.27624010     0.42500
N123        N  0.51427270  0.43270157  0.26493204     0.01400
N124        N  0.49904127  0.53705007  0.21521385    -0.25500
N125        N  0.59122095  0.50885007  0.26032232    -0.26000
N126        N  0.49577590  0.51266163  0.20287611     0.01000
H127        H  0.46688662  0.58179092  0.22164985     0.06900
H128        H  0.46198588  0.44092357  0.17890046     0.06900
N129        N  0.51102463  0.40883507  0.25237597    -0.26100
N130        N  0.57063461  0.43667804  0.19587505    -0.25700
N131        N  0.51306233  0.53513455  0.25468287     0.01400
C132        C  0.63015005  0.39348727  0.26493190     0.42800
C133        C  0.59790583  0.56108351  0.20388517    -0.06900
N134        N  0.49591103  0.43534609  0.20161012    -0.25700
H135        H  0.59656912  0.44955693  0.17128498     0.06900
N136        N  0.61531894  0.42311807  0.27104214    -0.46900
H137        H  0.60539335  0.58448788  0.21099954     0.06900
C138        C  0.45074532  0.54467845  0.19870504     0.42600
C139        C  0.62138867  0.51214959  0.26913375    -0.06400
Co140      Co  0.54377328  0.53694521  0.23199809     0.73800
N141        N  0.58979505  0.52005732  0.18255315    -0.46600
C142        C  0.46907385  0.40323306  0.27243396     0.42900
N143        N  0.49168123  0.55988263  0.26015623    -0.46600
Co144      Co  0.53306531  0.47468391  0.19904029     0.73900
C145        C  0.46913609  0.42703411  0.19087680    -0.06900
C146        C  0.61056261  0.38340113  0.24903326    -0.06500
N147        N  0.51651081  0.50982523  0.26641300    -0.26000
N148        N  0.60027391  0.38984430  0.20319335    -0.46800
H149        H  0.47392540  0.36727525  0.24800867     0.06900
C150        C  0.47150017  0.55882850  0.21363068    -0.06900
Cl151      Cl  0.54328026  0.47285794  0.23109680    -0.49900
C152        C  0.60816242  0.54921471  0.18623740     0.42600
H153        H  0.49457247  0.50107510  0.29242921     0.06800
N154        N  0.46775135  0.51636868  0.19281331    -0.46600
N155        N  0.54982698  0.97074801  0.50810616    -0.36600
N156        N  0.50850952  0.93425676  0.48147996    -0.57100
N157        N  0.54966626  0.96706732  0.45335676    -0.36600
N158        N  0.58776652  0.00643502  0.47993589    -0.57100
C159        C  0.52405183  0.95729404  0.51825246     0.27000
C160        C  0.56415367  0.99747428  0.51733385     0.27000
C161        C  0.52284818  0.95371992  0.44378992     0.27000
C162        C  0.56634076  0.99055608  0.44294113     0.27000
C163        C  0.49815657  0.91659415  0.49608241     0.35600
C164        C  0.49654039  0.91610951  0.46733260     0.35600
C165        C  0.60555839  0.01830971  0.49420554     0.35600
C166        C  0.60726962  0.01452705  0.46559826     0.35600
C167        C  0.52245313  0.97514959  0.53429004    -0.21900
C168        C  0.54772650  0.00066867  0.53367202    -0.21900
C169        C  0.52280632  0.96852100  0.42693615    -0.21900
C170        C  0.55038313  0.99166996  0.42638162    -0.21900
C171        C  0.47919937  0.88722153  0.49122877    -0.22900
C172        C  0.47814664  0.88691967  0.47296138    -0.22900
C173        C  0.63636989  0.03430413  0.48893080    -0.22900
C174        C  0.63751479  0.03180524  0.47076390    -0.22900
C175        C  0.50286209  0.92847650  0.51368607    -0.18300
C176        C  0.59273948  0.01794703  0.51174185    -0.18300
C177        C  0.59628529  0.01005970  0.44785734    -0.18300
C178        C  0.49983095  0.92697109  0.44947376    -0.18300
H179        H  0.50484572  0.97035881  0.54527972     0.14600
H180        H  0.55351410  0.01929138  0.54411139     0.14600
H181        H  0.50497754  0.96295297  0.41609372     0.14600
H182        H  0.55783209  0.00749470  0.41508078     0.14600
H183        H  0.46684819  0.86842025  0.49994225     0.12900
H184        H  0.46492739  0.86773414  0.46476753     0.12900
H185        H  0.65564515  0.04705753  0.49727412     0.12900
H186        H  0.65778613  0.04239872  0.46230264     0.12900
H187        H  0.55826163  0.96102838  0.49596540     0.26200
H188        H  0.55731633  0.95919603  0.46596807     0.26200
N189        N  0.03495501  0.46922923  0.99663749    -0.36600
N190        N  0.06840488  0.50280011  0.96666575    -0.57100
N191        N  0.01961698  0.46581974  0.94234245    -0.36600
N192        N  0.98679792  0.43165427  0.97239554    -0.57100
C193        C  0.05763052  0.49001881  0.00563456     0.27000
C194        C  0.01457950  0.45303720  0.00876737     0.27000
C195        C  0.04125105  0.48078545  0.93036271     0.27000
C196        C  0.99926682  0.44260826  0.93341808     0.27000
C197        C  0.08753503  0.51813173  0.97965826     0.35600
C198        C  0.07982260  0.51586375  0.95107696     0.35600
C199        C  0.97429725  0.41981414  0.98805819     0.35600
C200        C  0.96773348  0.41630266  0.95937371     0.35600
C201        C  0.05184801  0.48650049  0.02377301    -0.21900
C202        C  0.02482334  0.46322789  0.02574593    -0.21900
C203        C  0.03379109  0.46774742  0.91351947    -0.21900
C204        C  0.00753197  0.44360617  0.91546151    -0.21900
C205        C  0.11149203  0.54103357  0.97227164    -0.22900
C206        C  0.10658866  0.53967394  0.95418631    -0.22900
C207        C  0.94693186  0.39673970  0.98496280    -0.22900
C208        C  0.94278187  0.39454288  0.96682730    -0.22900
C209        C  0.08336143  0.51234041  0.99813448    -0.18300
C210        C  0.98712731  0.42903802  0.00517199    -0.18300
C211        C  0.97341763  0.42035255  0.94083959    -0.18300
C212        C  0.06756151  0.50597760  0.93398313    -0.18300
H213        H  0.06551544  0.49947962  0.03454073     0.14600
H214        H  0.01387221  0.45493081  0.03832460     0.14600
H215        H  0.04624180  0.47454746  0.90107334     0.14600
H216        H  0.99600367  0.42837621  0.90481479     0.14600
H217        H  0.13041199  0.55715832  0.97918475     0.12900
H218        H  0.12130516  0.55437324  0.94443963     0.12900
H219        H  0.93159122  0.38280094  0.99474945     0.12900
H220        H  0.92378689  0.37848716  0.95992560     0.12900
H221        H  0.03365473  0.46569912  0.98332640     0.26200
H222        H  0.01850053  0.47184221  0.95548806     0.26200
N223        N  0.03290610  0.45540446  0.45566971    -0.36600
N224        N  0.07218313  0.40910290  0.47880323    -0.57100
N225        N  0.03775448  0.43906367  0.50942055    -0.36600
N226        N  0.00152077  0.48835514  0.48605323    -0.57100
C227        C  0.05709632  0.44298191  0.44431323     0.27000
C228        C  0.01931857  0.48430198  0.44814810     0.27000
C229        C  0.06321215  0.42050290  0.51746799     0.27000
C230        C  0.02595824  0.46246026  0.52138584     0.27000
C231        C  0.08013245  0.39478848  0.46295283     0.35600
C232        C  0.08280883  0.38624652  0.49127170     0.35600
C233        C  0.98221474  0.50355318  0.47317018     0.35600
C234        C  0.98538978  0.49532203  0.50155468     0.35600
C235        C  0.05873868  0.46402065  0.42932887    -0.21900
C236        C  0.03481979  0.49015777  0.43175455    -0.21900
C237        C  0.06722213  0.43180130  0.53489234    -0.21900
C238        C  0.04364788  0.45837191  0.53736836    -0.21900
C239        C  0.09622646  0.36278976  0.46530295    -0.22900
C240        C  0.09799600  0.35737723  0.48332975    -0.22900
C241        C  0.95390822  0.52070527  0.48047839    -0.22900
C242        C  0.95597626  0.51561890  0.49853210    -0.22900
C243        C  0.07590437  0.41180583  0.44653489    -0.18300
C244        C  0.99136956  0.50389158  0.45504746    -0.18300
C245        C  0.99847555  0.48619134  0.51848919    -0.18300
C246        C  0.08181700  0.39268950  0.50969753    -0.18300
H247        H  0.07509337  0.46060537  0.41772548     0.14600
H248        H  0.02912868  0.51084461  0.42240541     0.14600
H249        H  0.08516609  0.42186614  0.54480225     0.14600
H250        H  0.03983983  0.47290886  0.54956225     0.14600
H251        H  0.10631080  0.34558226  0.45511739     0.12900
H252        H  0.10968431  0.33510479  0.48984852     0.12900
H253        H  0.93427915  0.53580134  0.47356286     0.12900
H254        H  0.93812096  0.52604307  0.50832950     0.12900
H255        H  0.02436713  0.44336091  0.46723445     0.26200
H256        H  0.02765551  0.43485930  0.49678365     0.26200
N257        N  0.52240868  0.94563490  0.94896325    -0.36600
N258        N  0.56326050  0.91500584  0.97793441    -0.57100
N259        N  0.52381042  0.95615075  0.00336203    -0.36600
N260        N  0.48631904  0.99015987  0.97417549    -0.57100
C261        C  0.54700058  0.92841206  0.93960299     0.27000
C262        C  0.50632773  0.96770162  0.93760736     0.27000
C263        C  0.54845762  0.94250844  0.01421795     0.27000
C264        C  0.50861409  0.98277605  0.01218912     0.27000
C265        C  0.57416931  0.89460497  0.96442380     0.35600
C266        C  0.57448237  0.89974414  0.99306115     0.35600
C267        C  0.46847149  0.99905381  0.95936425     0.35600
C268        C  0.46942894  0.00488620  0.98799533     0.35600
C269        C  0.54604834  0.93912303  0.92197225    -0.21900
C270        C  0.52036265  0.96384306  0.92070806    -0.21900
C271        C  0.54842430  0.96018520  0.03031344    -0.21900
C272        C  0.52337858  0.98564892  0.02902658    -0.21900
C273        C  0.59289374  0.86649233  0.97094854    -0.22900
C274        C  0.59307547  0.86973241  0.98913216    -0.22900
C275        C  0.44029288  0.01996322  0.96375119    -0.22900
C276        C  0.44086341  0.02361982  0.98193005    -0.22900
C277        C  0.56913913  0.90200661  0.94623396    -0.18300
C278        C  0.47861055  0.99051365  0.94185515    -0.18300
C279        C  0.48079240  0.00369162  0.00586911    -0.18300
C280        C  0.57001357  0.91363131  0.01030098    -0.18300
H281        H  0.56201082  0.92993619  0.91106724     0.14600
H282        H  0.51287359  0.97734538  0.90865667     0.14600
H283        H  0.56470918  0.95524175  0.04182066     0.14600
H284        H  0.51669495  0.00406216  0.03939581     0.14600
H285        H  0.60532183  0.84595063  0.96338940     0.12900
H286        H  0.60573098  0.85219265  0.99838061     0.12900
H287        H  0.42156951  0.03170282  0.95477914     0.12900
H288        H  0.42267679  0.03876943  0.98976244     0.12900
H289        H  0.51589943  0.94130549  0.96210992     0.26200
H290        H  0.51655058  0.94674825  0.99100567     0.26200
C291        C  0.68325158  0.74475165  0.81902134     0.80200
N292        N  0.71377070  0.75914593  0.81333798    -0.78100
C293        C  0.72793033  0.78674034  0.82215375     0.82700
N294        N  0.71153328  0.80008555  0.83653657    -0.78000
C295        C  0.68112535  0.78592939  0.84218396     0.82800
N296        N  0.66711351  0.75816439  0.83355666    -0.79700
C297        C  0.78943449  0.27200398  0.83311728     0.80200
N298        N  0.80258029  0.24334236  0.82497643    -0.78100
C299        C  0.83393978  0.23008670  0.82995478     0.82700
N300        N  0.85236067  0.24586952  0.84322275    -0.78000
C301        C  0.83911681  0.27418299  0.85171844     0.82800
N302        N  0.80779418  0.28736392  0.84652262    -0.79700
C303        C  0.38641918  0.09095913  0.82863685     0.80200
N304        N  0.40250724  0.11936273  0.82169611    -0.78100
C305        C  0.39155522  0.13233427  0.80589528     0.82700
N306        N  0.36420067  0.11716252  0.79729101    -0.78000
C307        C  0.34829749  0.08831567  0.80400222     0.82800
N308        N  0.35992936  0.07529463  0.81968084    -0.79700
C309        C  0.21536117  0.68564398  0.82717820     0.80200
N310        N  0.19600106  0.66645981  0.83865710    -0.78100
C311        C  0.20589858  0.63358732  0.84282467     0.82700
N312        N  0.23481124  0.61962407  0.83530987    -0.78000
C313        C  0.25415790  0.63871918  0.82375035     0.82800
N314        N  0.24432764  0.67173652  0.81964274    -0.79700
C315        C  0.22348002  0.24993178  0.59401861     0.80200
N316        N  0.25389527  0.26261999  0.60066618    -0.78100
C317        C  0.27046894  0.24523933  0.61386400     0.82700
N318        N  0.25652533  0.21565252  0.62059099    -0.78000
C319        C  0.22607870  0.20306656  0.61403174     0.82800
N320        N  0.20929916  0.22033835  0.60081614    -0.79700
C321        C  0.74520039  0.16827988  0.58789400     0.80200
N322        N  0.73763976  0.19883887  0.59613840    -0.78100
C323        C  0.75802835  0.21099610  0.60961159     0.82700
N324        N  0.78574056  0.19167057  0.61504610    -0.78000
C325        C  0.79346329  0.16085106  0.60702219     0.82800
N326        N  0.77313019  0.14944902  0.59338615    -0.79700
C327        C  0.43614349  0.51427027  0.75301884     0.42500
N328        N  0.45623064  0.47695783  0.73459167     0.01400
C329        C  0.62223641  0.40556053  0.73935173    -0.06500
H330        H  0.62112444  0.53691564  0.72949127     0.06900
C331        C  0.55972933  0.51802174  0.66905019    -0.06900
Co332      Co  0.52526835  0.45035310  0.74651236     0.74200
N333        N  0.58100323  0.49812138  0.73351579    -0.26000
Co334      Co  0.58845290  0.46089080  0.71384506     0.74100
C335        C  0.59149511  0.53697049  0.67356119     0.42600
N336        N  0.48029376  0.48252237  0.68280067     0.01000
N337        N  0.58171219  0.49793130  0.69354874     0.01100
N338        N  0.57907482  0.39953682  0.75961083    -0.46900
H339        H  0.48495016  0.51098939  0.77072747     0.06800
N340        N  0.55682784  0.49406482  0.74587650     0.01400
N341        N  0.59343850  0.42298658  0.69409750     0.01100
C342        C  0.61377180  0.38471859  0.67613313     0.42700
N343        N  0.45621615  0.47839698  0.69516363    -0.25500
C344        C  0.49412713  0.37845239  0.75667163    -0.06400
N345        N  0.42834445  0.49612298  0.73810854    -0.46600
N346        N  0.62090802  0.40285954  0.69112939    -0.46800
C347        C  0.46784152  0.35520783  0.74909600     0.42500
N348        N  0.56959944  0.42001542  0.74635058     0.01400
N349        N  0.46850524  0.40358649  0.69461242    -0.25500
N350        N  0.48103850  0.48080820  0.74660051    -0.26000
N351        N  0.49260705  0.40735405  0.68227928     0.01000
H352        H  0.42729192  0.36598058  0.69840877     0.06900
H353        H  0.56556172  0.38848393  0.65786745     0.06900
N354        N  0.59427356  0.42420197  0.73428876    -0.26100
N355        N  0.55642484  0.49399678  0.68180034    -0.25700
N356        N  0.46976569  0.40198459  0.73368457     0.01400
C357        C  0.58283448  0.54104853  0.75302189     0.42800
C358        C  0.43130808  0.50252523  0.69283356    -0.06900
N359        N  0.56898573  0.41954618  0.68178344    -0.25700
H360        H  0.54432101  0.51912049  0.65698429     0.06900
N361        N  0.55710253  0.51917831  0.75790033    -0.46900
H362        H  0.40825243  0.50559762  0.70097270     0.06900
C363        C  0.46524697  0.36107441  0.67487447     0.42600
C364        C  0.47079591  0.50397757  0.75877273    -0.06400
Co365      Co  0.46170195  0.44009108  0.71449730     0.73800
N366        N  0.47356464  0.50896563  0.67207854    -0.46600
C367        C  0.61185094  0.38914964  0.75616192     0.42900
N368        N  0.45363655  0.37151759  0.73493379    -0.46600
Co369      Co  0.52438448  0.45082506  0.68183886     0.73900
C370        C  0.57949440  0.39584167  0.66983569    -0.06900
C371        C  0.59895582  0.52729966  0.73694713    -0.06500
N372        N  0.49382127  0.40638339  0.74606001    -0.26000
N373        N  0.60381680  0.52297846  0.68888686    -0.46800
H374        H  0.64742751  0.40571703  0.73285484     0.06900
C375        C  0.44992764  0.37490397  0.69109320    -0.06900
Cl376      Cl  0.52508759  0.45054683  0.71416429    -0.49900
C377        C  0.44309028  0.52289075  0.67753720     0.42600
H378        H  0.51107906  0.37476244  0.76803413     0.06800
N379        N  0.49124330  0.38274248  0.66997626    -0.46600
C380        C  0.84785537  0.67351943  0.62276255     0.80200
N381        N  0.86873049  0.65621216  0.61119756    -0.78100
C382        C  0.85632326  0.62790970  0.60232197     0.82700
N383        N  0.82309477  0.61674157  0.60516292    -0.78000
C384        C  0.80218161  0.63411617  0.61669597     0.82800
N385        N  0.81474858  0.66221828  0.62564650    -0.79700
C386        C  0.37510394  0.80559764  0.61186242     0.80200
N387        N  0.34901262  0.81966736  0.62180263    -0.78100
C388        C  0.33305942  0.80043487  0.63463512     0.82700
N389        N  0.34345214  0.76711726  0.63738548    -0.78000
C390        C  0.36978084  0.75308480  0.62775464     0.82800
N391        N  0.38560420  0.77235915  0.61498513    -0.79700
C392        C  0.94984830  0.88631961  0.77211776     0.42500
N393        N  0.99283002  0.89524852  0.75443236     0.01400
C394        C  0.09184750  0.04325667  0.74288292    -0.06500
H395        H  0.95809796  0.06419200  0.73462060     0.06900
C396        C  0.96732870  0.97940607  0.68059396    -0.06900
Co397      Co  0.02767655  0.96380381  0.76129880     0.74200
N398        N  0.98804109  0.01924285  0.74238538    -0.26000
Co399      Co  0.02652785  0.01507234  0.72318115     0.74100
C400        C  0.95070132  0.01329819  0.68316126     0.42600
N401        N  0.99480070  0.90193212  0.70094302     0.01000
N402        N  0.98968336  0.00595765  0.70333414     0.01100
N403        N  0.09229298  0.00877597  0.76726942    -0.46900
H404        H  0.95733844  0.93973833  0.78566442     0.06800
N405        N  0.98837187  0.99994458  0.75690536     0.01400
N406        N  0.06539314  0.00970545  0.70417344     0.01100
C407        C  0.10663858  0.02035417  0.68576232     0.42700
N408        N  0.99517253  0.88197535  0.71522715    -0.25500
C409        C  0.09255723  0.92649608  0.77737026    -0.06400
N410        N  0.96841624  0.87212321  0.75866483    -0.46600
N411        N  0.08818059  0.03389119  0.69935923    -0.46800
C412        C  0.11057930  0.89365513  0.77405798     0.42500
N413        N  0.06432555  0.00298706  0.75734875     0.01400
N414        N  0.07150213  0.88630823  0.71631652    -0.25500
N415        N  0.99131047  0.92372624  0.76429225    -0.26000
N416        N  0.07097124  0.90607538  0.70194678     0.01000
H417        H  0.10887832  0.84885555  0.72628012     0.06900
H418        H  0.09940466  0.96722312  0.67187656     0.06900
N419        N  0.06377607  0.02239235  0.74286658    -0.26100
N420        N  0.99143735  0.97753490  0.69349582    -0.25700
N421        N  0.06894479  0.89928102  0.75514700     0.01400
C422        C  0.94744795  0.03682160  0.76125541     0.42800
C423        C  0.97073784  0.85713976  0.71327311    -0.06900
N424        N  0.06720934  0.98138478  0.69429367    -0.25700
H425        H  0.96370721  0.96053652  0.67003912     0.06900
N426        N  0.96502207  0.01017176  0.76873919    -0.46900
H427        H  0.96598996  0.83583385  0.72238135     0.06900
C428        C  0.11865153  0.87774894  0.69990651     0.42600
C429        C  0.96484011  0.92058644  0.77582295    -0.06400
Co430      Co  0.03206067  0.88970399  0.73532363     0.73800
N431        N  0.97154957  0.89175801  0.68899057    -0.46600
C432        C  0.11047363  0.03421830  0.75906579     0.42900
N433        N  0.09428788  0.87811648  0.76019892    -0.46600
Co434      Co  0.03107371  0.94137223  0.69735373     0.73900
C435        C  0.09272942  0.98551669  0.68228404    -0.06900
C436        C  0.96282194  0.04308020  0.74384266    -0.06500
N437        N  0.06717581  0.92757702  0.76506256    -0.26000
N438        N  0.96604737  0.02828259  0.69745770    -0.46800
H439        H  0.09946775  0.06083406  0.73233647     0.06900
C440        C  0.10077527  0.86713585  0.71614420    -0.06900
Cl441      Cl  0.02916184  0.95243627  0.72931272    -0.49900
C442        C  0.95474602  0.86410245  0.69597422     0.42600
H443        H  0.09700322  0.94572861  0.78766898     0.06800
N444        N  0.09877229  0.90182612  0.69177641    -0.46600
C445        C  0.15220876  0.86544228  0.69293826     0.01400
C446        C  0.18004360  0.88919196  0.69072380     0.04200
C447        C  0.21075822  0.87846561  0.68215526    -0.11900
C448        C  0.21391804  0.84384902  0.67611670     0.23500
C449        C  0.18693573  0.81955176  0.67933414    -0.12400
C450        C  0.15567000  0.83060451  0.68729835     0.04900
C451        C  0.24490700  0.83368067  0.66559994     0.27300
C452        C  0.24644300  0.84187909  0.64735282    -0.13100
C453        C  0.27594324  0.83263269  0.63726272     0.05400
C454        C  0.30401706  0.81475513  0.64543590    -0.09100
C455        C  0.30297127  0.80822982  0.66398992     0.06200
C456        C  0.27334524  0.81740106  0.67396267    -0.13500
Br457      Br  0.19272458  0.77128279  0.67274619    -0.05500
Br458      Br  0.17619704  0.93640554  0.69943682     0.00100
Br459      Br  0.27661529  0.84379467  0.61220074     0.00500
Br460      Br  0.27154299  0.80808565  0.69919908    -0.03900
Br461      Br  0.11643300  0.79898290  0.68887656     0.00600
Br462      Br  0.24847250  0.91117541  0.67837214    -0.03200
Br463      Br  0.20769536  0.86566226  0.63621682    -0.04000
Br464      Br  0.34285295  0.78879912  0.67623716    -0.00100
C465        C  0.93765417  0.83783499  0.68476445     0.01400
C466        C  0.90107263  0.83431038  0.68485548     0.04200
C467        C  0.88512316  0.80771609  0.67484573    -0.11900
C468        C  0.90562981  0.78625227  0.66385015     0.23500
C469        C  0.94212278  0.79082360  0.66314005    -0.12400
C470        C  0.95822393  0.81624527  0.67382381     0.04900
C471        C  0.88913213  0.75796488  0.65348143     0.27300
C472        C  0.88471344  0.72496056  0.66131755    -0.13100
C473        C  0.87134718  0.69723300  0.65117393     0.05400
C474        C  0.86193896  0.70262569  0.63325944    -0.09100
C475        C  0.86567435  0.73583871  0.62551628     0.06200
C476        C  0.87907065  0.76363436  0.63568620    -0.13500
Br477      Br  0.97002183  0.76175051  0.64777455    -0.05500
Br478      Br  0.87278794  0.86682841  0.69795672     0.00100
Br479      Br  0.86721845  0.65162874  0.66169879     0.00500
Br480      Br  0.88319031  0.80959881  0.62548048    -0.03900
Br481      Br  0.00850605  0.82124234  0.67358144     0.00600
Br482      Br  0.83545250  0.79978577  0.67658065    -0.03200
Br483      Br  0.89677203  0.71802622  0.68602259    -0.04000
Br484      Br  0.85213131  0.74316521  0.60107869    -0.00100
C485        C  0.42747081  0.55436622  0.66947233     0.01400
C486        C  0.41638966  0.58272518  0.68010936     0.04200
C487        C  0.40463353  0.61357940  0.67195130    -0.11900
C488        C  0.40641390  0.61717056  0.65333180     0.23500
C489        C  0.41787147  0.58921855  0.64276103    -0.12400
C490        C  0.42671871  0.55735829  0.65074066     0.04900
C491        C  0.39800644  0.65103830  0.64498777     0.27300
C492        C  0.36429522  0.65721124  0.63819129    -0.13100
C493        C  0.35601869  0.69005827  0.63112318     0.05400
C494        C  0.38095129  0.71717939  0.63154673    -0.09100
C495        C  0.41523751  0.71047902  0.63751340     0.06200
C496        C  0.42374886  0.67733005  0.64417969    -0.13500
Br497      Br  0.42362808  0.59542811  0.61746034    -0.05500
Br498      Br  0.42046725  0.58146567  0.70571793     0.00100
Br499      Br  0.31090793  0.69770821  0.62027451     0.00500
Br500      Br  0.47026712  0.66809496  0.65293252    -0.03900
Br501      Br  0.43653263  0.51752140  0.63581651     0.00600
Br502      Br  0.38746163  0.65178896  0.68621593    -0.03200
Br503      Br  0.32908126  0.62119941  0.63935033    -0.04000
Br504      Br  0.45011550  0.74695132  0.63751570    -0.00100
C505        C  0.76797497  0.61964743  0.62154858     0.01400
C506        C  0.76570043  0.59701327  0.63622256     0.04200
C507        C  0.73300784  0.58497385  0.64195808    -0.11900
C508        C  0.70247402  0.59518191  0.63288285     0.23500
C509        C  0.70475302  0.61683755  0.61779936    -0.12400
C510        C  0.73757754  0.62944688  0.61224632     0.04900
C511        C  0.66826734  0.58436775  0.64016183     0.27300
C512        C  0.65339605  0.55233237  0.63500411    -0.13100
C513        C  0.62635648  0.53753710  0.64518965     0.05400
C514        C  0.61444032  0.55492231  0.66068924    -0.09100
C515        C  0.62708439  0.58852743  0.66469718     0.06200
C516        C  0.65386773  0.60332103  0.65439827    -0.13500
Br517      Br  0.66289490  0.62954621  0.60511235    -0.05500
Br518      Br  0.80738756  0.58301447  0.64873768     0.00100
Br519      Br  0.60824774  0.49234633  0.63832668     0.00500
Br520      Br  0.67259136  0.64863429  0.66037500    -0.03900
Br521      Br  0.74096204  0.66111421  0.59242168     0.00600
Br522      Br  0.72985979  0.55520933  0.66263728    -0.03200
Br523      Br  0.67191752  0.52780496  0.61466792    -0.04000
Br524      Br  0.60798881  0.61410441  0.68444066    -0.00100
C525        C  0.74621609  0.24186734  0.61997957     0.01400
C526        C  0.73231032  0.27106569  0.61093742     0.04200
C527        C  0.71335689  0.29653111  0.62031752    -0.11900
C528        C  0.70955406  0.29390370  0.63888677     0.23500
C529        C  0.72667520  0.26708921  0.64819982    -0.12400
C530        C  0.74454751  0.24077861  0.63884325     0.04900
C531        C  0.68526429  0.31749670  0.64846818     0.27300
C532        C  0.69580382  0.35139127  0.65339089    -0.13100
C533        C  0.67227298  0.37365026  0.66221667     0.05400
C534        C  0.63856417  0.36153714  0.66680799    -0.09100
C535        C  0.62825513  0.32740858  0.66206443     0.06200
C536        C  0.65130004  0.30572932  0.65261191    -0.13500
Br537      Br  0.72406071  0.26581643  0.67386141    -0.05500
Br538      Br  0.73976116  0.27683961  0.58570170     0.00100
Br539      Br  0.68559029  0.42141896  0.66685239     0.00500
Br540      Br  0.63624074  0.25991518  0.64503890    -0.03900
Br541      Br  0.76381955  0.20235293  0.65227296     0.00600
Br542      Br  0.69104644  0.33420647  0.60767314    -0.03200
Br543      Br  0.74246272  0.36720603  0.64790232    -0.04000
Br544      Br  0.58316590  0.30956339  0.66919755    -0.00100
C545        C  0.81964026  0.13729928  0.61523823     0.01400
C546        C  0.81089416  0.10205958  0.61899858     0.04200
C547        C  0.83423830  0.08100255  0.62864272    -0.11900
C548        C  0.86562914  0.09516707  0.63525830     0.23500
C549        C  0.87477011  0.12989793  0.63129044    -0.12400
C550        C  0.85221842  0.15069452  0.62099625     0.04900
C551        C  0.88773395  0.07408894  0.64738460     0.27300
C552        C  0.87851739  0.07108985  0.66545885    -0.13100
C553        C  0.89875340  0.05053249  0.67700497     0.05400
C554        C  0.92834306  0.03272549  0.67053301    -0.09100
C555        C  0.93766243  0.03590358  0.65236736     0.06200
C556        C  0.91740168  0.05666387  0.64087787    -0.13500
Br557      Br  0.91755543  0.14935287  0.64069748    -0.05500
Br558      Br  0.76575494  0.08267574  0.61273748     0.00100
Br559      Br  0.88532627  0.04629264  0.70168259     0.00500
Br560      Br  0.93069920  0.06215665  0.61626039    -0.03900
Br561      Br  0.86647128  0.19739560  0.61462283     0.00600
Br562      Br  0.82264427  0.03288217  0.63361548    -0.03200
Br563      Br  0.83828012  0.09574171  0.67440745    -0.04000
Br564      Br  0.97929012  0.01415828  0.64310159    -0.00100
C565        C  0.20951407  0.17361395  0.62301767     0.01400
C566        C  0.22355336  0.13992196  0.62125768     0.04200
C567        C  0.21024089  0.11251625  0.63165367    -0.11900
C568        C  0.18344313  0.11915007  0.64401845     0.23500
C569        C  0.16951687  0.15294475  0.64575606    -0.12400
C570        C  0.18215086  0.18004476  0.63503444     0.04900
C571        C  0.16721863  0.09024296  0.65399693     0.27300
C572        C  0.13899560  0.07216719  0.64626889    -0.13100
C573        C  0.11988845  0.04802410  0.65638643     0.05400
C574        C  0.12931336  0.04166900  0.67427359    -0.09100
C575        C  0.15847221  0.05884767  0.68177646     0.06200
C576        C  0.17738760  0.08322834  0.67164408    -0.13500
Br577      Br  0.13312600  0.16205119  0.66288266    -0.05500
Br578      Br  0.26031593  0.13142545  0.60427556     0.00100
Br579      Br  0.07888826  0.02675017  0.64600827     0.00500
Br580      Br  0.21607008  0.10834432  0.68210821    -0.03900
Br581      Br  0.16236565  0.22614505  0.63702402     0.00600
Br582      Br  0.22820980  0.06590950  0.62888658    -0.03200
Br583      Br  0.12523087  0.08247372  0.62207583    -0.04000
Br584      Br  0.17220787  0.04922280  0.70602639    -0.00100
C585        C  0.44645421  0.33797448  0.66271849     0.01400
C586        C  0.43734694  0.30433436  0.66861729     0.04200
C587        C  0.41190206  0.28516127  0.65938757    -0.11900
C588        C  0.39595301  0.29973731  0.64427686     0.23500
C589        C  0.40740531  0.33185101  0.63740167    -0.12400
C590        C  0.43233995  0.35138669  0.64676021     0.04900
C591        C  0.36394136  0.28413426  0.63703661     0.27300
C592        C  0.36579928  0.25970150  0.62313087    -0.13100
C593        C  0.33490644  0.24678122  0.61553697     0.05400
C594        C  0.30248874  0.25915353  0.62155656    -0.09100
C595        C  0.30058936  0.28384271  0.63536198     0.06200
C596        C  0.33140177  0.29602100  0.64330705    -0.13500
Br597      Br  0.38657187  0.35011609  0.61591038    -0.05500
Br598      Br  0.45827847  0.28556211  0.68995039     0.00100
Br599      Br  0.33674092  0.21259288  0.59673327     0.00500
Br600      Br  0.32921733  0.32941899  0.66256386    -0.03900
Br601      Br  0.44302929  0.39813201  0.63877154     0.00600
Br602      Br  0.39711912  0.24013068  0.66801514    -0.03200
Br603      Br  0.41060873  0.24500360  0.61424459    -0.04000
Br604      Br  0.25590594  0.30116313  0.64323142    -0.00100
C605        C  0.41078941  0.53257790  0.76421224     0.01400
C606        C  0.38209433  0.51434741  0.77144670     0.04200
C607        C  0.35885688  0.53165251  0.78284234    -0.11900
C608        C  0.36440356  0.56701767  0.78706521     0.23500
C609        C  0.39427700  0.58456687  0.78075001    -0.12400
C610        C  0.41719701  0.56749418  0.76908683     0.04900
C611        C  0.33701338  0.58649922  0.79662095     0.27300
C612        C  0.30796361  0.59889635  0.78702119    -0.13100
C613        C  0.28148846  0.61724790  0.79583723     0.05400
C614        C  0.28349771  0.62230219  0.81439467    -0.09100
C615        C  0.31238723  0.60954492  0.82404308     0.06200
C616        C  0.33926317  0.59176959  0.81512657    -0.13500
Br617      Br  0.40398714  0.63170869  0.78831612    -0.05500
Br618      Br  0.37532540  0.46536058  0.76647342     0.00100
Br619      Br  0.24165645  0.63379093  0.78250323     0.00500
Br620      Br  0.37859026  0.57359877  0.82821511    -0.03900
Br621      Br  0.45662564  0.59231120  0.75919986     0.00600
Br622      Br  0.31946286  0.50708244  0.79288641    -0.03200
Br623      Br  0.30367803  0.58913046  0.76187393    -0.04000
Br624      Br  0.31543317  0.61697176  0.84939402    -0.00100
C625        C  0.20307883  0.72008059  0.82164075     0.01400
C626        C  0.21894766  0.75044462  0.82846501     0.04200
C627        C  0.20742726  0.78339025  0.82278103    -0.11900
C628        C  0.17983111  0.78578167  0.81045035     0.23500
C629        C  0.16331084  0.75533683  0.80403304    -0.12400
C630        C  0.17523691  0.72248688  0.80946046     0.04900
C631        C  0.16864345  0.81996631  0.80349525     0.27300
C632        C  0.14229986  0.83881719  0.81224906    -0.13100
C633        C  0.12560619  0.86653819  0.80346266     0.05400
C634        C  0.13490344  0.87460297  0.78572610    -0.09100
C635        C  0.16426569  0.85856838  0.77798188     0.06200
C636        C  0.18121695  0.83128471  0.78690008    -0.13500
Br637      Br  0.12434864  0.75870750  0.78774571    -0.05500
Br638      Br  0.25610188  0.74670791  0.84570231     0.00100
Br639      Br  0.08840977  0.89090835  0.81544740     0.00500
Br640      Br  0.22011372  0.80764926  0.77596791    -0.03900
Br641      Br  0.15432654  0.68076779  0.79968032     0.00600
Br642      Br  0.22932377  0.82524381  0.83169398    -0.03200
Br643      Br  0.12742574  0.82468948  0.83569702    -0.04000
Br644      Br  0.18058415  0.87339056  0.75490482    -0.00100
C645        C  0.40860843  0.16301332  0.79802336     0.01400
C646        C  0.40643619  0.19578424  0.80642401     0.04200
C647        C  0.41682063  0.22591350  0.79720720    -0.11900
C648        C  0.42939884  0.22320202  0.77962950     0.23500
C649        C  0.43354570  0.19018808  0.77167972    -0.12400
C650        C  0.42441478  0.16006939  0.78119907     0.04900
C651        C  0.43936794  0.25517434  0.76991377     0.27300
C652        C  0.41326197  0.27788004  0.76363872    -0.13100
C653        C  0.42252493  0.31075671  0.75688808     0.05400
C654        C  0.45812908  0.32006890  0.75533686    -0.09100
C655        C  0.48432095  0.29603382  0.76034683     0.06200
C656        C  0.47488275  0.26415959  0.76817965    -0.13500
Br657      Br  0.45064214  0.18622142  0.74761317    -0.05500
Br658      Br  0.38945630  0.19956924  0.83049996     0.00100
Br659      Br  0.38605183  0.34383087  0.75141593     0.00500
Br660      Br  0.51061435  0.23340687  0.77728780    -0.03900
Br661      Br  0.43684746  0.11474137  0.77210995     0.00600
Br662      Br  0.41299819  0.27108768  0.80846292    -0.03200
Br663      Br  0.36467308  0.26430334  0.76496637    -0.04000
Br664      Br  0.53320451  0.30543377  0.75590357    -0.00100
C665        C  0.31706568  0.07294892  0.79488629     0.01400
C666        C  0.28998395  0.05625091  0.80475076     0.04200
C667        C  0.25857122  0.04688074  0.79625819    -0.11900
C668        C  0.25322465  0.05524550  0.77828476     0.23500
C669        C  0.28044789  0.06928031  0.76812117    -0.12400
C670        C  0.31272779  0.07686413  0.77618758     0.04900
C671        C  0.21798838  0.05131302  0.77060801     0.27300
C672        C  0.20727895  0.01913555  0.76339203    -0.13100
C673        C  0.17206280  0.01397304  0.75886999     0.05400
C674        C  0.14760614  0.04060375  0.76219997    -0.09100
C675        C  0.15866799  0.07338003  0.76839739     0.06200
C676        C  0.19410636  0.07902497  0.77218442    -0.13500
Br677      Br  0.27272790  0.07896849  0.74319338    -0.05500
Br678      Br  0.29326720  0.04701465  0.83002115     0.00100
Br679      Br  0.15749550  0.97087471  0.74777085     0.00500
Br680      Br  0.21005399  0.12455055  0.77961397    -0.03900
Br681      Br  0.35087651  0.09017267  0.76089262     0.00600
Br682      Br  0.22180353  0.02344639  0.80931196    -0.03200
Br683      Br  0.24076232  0.98221372  0.76006934    -0.04000
Br684      Br  0.12495685  0.10978013  0.77256992    -0.00100
C685        C  0.93040918  0.06379596  0.77187044     0.01400
C686        C  0.95047828  0.09139411  0.77899290     0.04200
C687        C  0.93395088  0.11824377  0.78841895    -0.11900
C688        C  0.89759173  0.11695652  0.79114397     0.23500
C689        C  0.87760028  0.08925694  0.78406791    -0.12400
C690        C  0.89409630  0.06261963  0.77441601     0.04900
C691        C  0.88037793  0.14531433  0.80108339     0.27300
C692        C  0.87979405  0.14468944  0.81979500    -0.13100
C693        C  0.86357543  0.17183207  0.82924392     0.05400
C694        C  0.84919558  0.20049513  0.81999260    -0.09100
C695        C  0.85028819  0.20112997  0.80114418     0.06200
C696        C  0.86558352  0.17338960  0.79176297    -0.13500
Br697      Br  0.82759433  0.08853173  0.78709956    -0.05500
Br698      Br  0.00061895  0.09243172  0.77594143     0.00100
Br699      Br  0.85951167  0.16844702  0.85478487     0.00500
Br700      Br  0.86756545  0.17409820  0.76606125    -0.03900
Br701      Br  0.86719492  0.02471622  0.76440988     0.00600
Br702      Br  0.96076401  0.15752896  0.79705038    -0.03200
Br703      Br  0.90210681  0.10692860  0.83239998    -0.04000
Br704      Br  0.83295321  0.24061546  0.78786814    -0.00100
C705        C  0.75887293  0.28964165  0.82515904     0.01400
C706        C  0.76317996  0.32306672  0.81757049     0.04200
C707        C  0.73591817  0.33811436  0.80770071    -0.11900
C708        C  0.70395633  0.32026935  0.80563811     0.23500
C709        C  0.69893879  0.28765394  0.81385303    -0.12400
C710        C  0.72661850  0.27196780  0.82327758     0.04900
C711        C  0.67707717  0.33488902  0.79355219     0.27300
C712        C  0.65445450  0.36116594  0.79960168    -0.13100
C713        C  0.63401342  0.37990815  0.78733709     0.05400
C714        C  0.63399865  0.37034638  0.76910558    -0.09100
C715        C  0.65465121  0.34214167  0.76337783     0.06200
C716        C  0.67683522  0.32511168  0.77547736    -0.13500
Br717      Br  0.65432996  0.26442939  0.81174501    -0.05500
Br718      Br  0.80749359  0.34718528  0.81912389     0.00100
Br719      Br  0.60897899  0.42053429  0.79557755     0.00500
Br720      Br  0.70755227  0.28874022  0.76725657    -0.03900
Br721      Br  0.72051997  0.22601496  0.83323454     0.00600
Br722      Br  0.74299486  0.38242612  0.79600589    -0.03200
Br723      Br  0.65171311  0.37126345  0.82473289    -0.04000
Br724      Br  0.65161498  0.32570809  0.73913654    -0.00100
C725        C  0.59431794  0.57130041  0.76332531     0.01400
C726        C  0.59883939  0.60343877  0.75463473     0.04200
C727        C  0.61407685  0.63145409  0.76372932    -0.11900
C728        C  0.62172092  0.62826141  0.78196432     0.23500
C729        C  0.61481303  0.59690850  0.79104563    -0.12400
C730        C  0.60205373  0.56798706  0.78160862     0.04900
C731        C  0.63733492  0.65786527  0.79154599     0.27300
C732        C  0.67324711  0.65778712  0.79537392    -0.13100
C733        C  0.68812299  0.68567415  0.80481903     0.05400
C734        C  0.66750630  0.71485000  0.80947018    -0.09100
C735        C  0.63150909  0.71506144  0.80509415     0.06200
C736        C  0.61632246  0.68610892  0.79663704    -0.13500
Br737      Br  0.62341606  0.59362941  0.81632339    -0.05500
Br738      Br  0.58161301  0.60997674  0.73074914     0.00100
Br739      Br  0.73605852  0.68187764  0.81227779     0.00500
Br740      Br  0.56662877  0.68481081  0.79198588    -0.03900
Br741      Br  0.59723017  0.52373408  0.79364040     0.00600
Br742      Br  0.62549013  0.67376820  0.75108997    -0.03200
Br743      Br  0.70197427  0.61929755  0.78754749    -0.04000
Br744      Br  0.60283956  0.75542982  0.80949072    -0.00100
C745        C  0.91836033  0.87069967  0.78033197     0.01400
C746        C  0.91520159  0.86894851  0.79903747     0.04200
C747        C  0.88392949  0.85700910  0.80678005    -0.11900
C748        C  0.85656725  0.84467534  0.79589112     0.23500
C749        C  0.86014702  0.84512854  0.77724572    -0.12400
C750        C  0.89064714  0.85876563  0.76949321     0.04900
C751        C  0.82405183  0.83088460  0.80392929     0.27300
C752        C  0.82371291  0.79741974  0.81168114    -0.13100
C753        C  0.79238391  0.78364538  0.81837614     0.05400
C754        C  0.76101147  0.80222950  0.81627584    -0.09100
C755        C  0.76148601  0.83620980  0.80919310     0.06200
C756        C  0.79316879  0.85083149  0.80337978    -0.13500
Br757      Br  0.82297985  0.82726913  0.76231320    -0.05500
Br758      Br  0.95433137  0.88050927  0.81417440     0.00100
Br759      Br  0.79304907  0.74088648  0.83180782     0.00500
Br760      Br  0.79448062  0.89826451  0.79485002    -0.03900
Br761      Br  0.89325628  0.86288841  0.74401440     0.00600
Br762      Br  0.87809746  0.85819467  0.83229743    -0.03200
Br763      Br  0.86605321  0.77031963  0.81309637    -0.04000
Br764      Br  0.71868968  0.86250318  0.80726419    -0.00100
C765        C  0.46078228  0.00816940  0.92686549     0.01400
C766        C  0.47494788  0.03921630  0.91988241     0.04200
C767        C  0.45964743  0.05464618  0.90487427    -0.11900
C768        C  0.43203814  0.03756097  0.89602423     0.23500
C769        C  0.41767605  0.00666246  0.90304513    -0.12400
C770        C  0.43147482  0.99247257  0.91876702     0.04900
C771        C  0.41970814  0.05092833  0.87873484     0.27300
C772        C  0.39060711  0.07322197  0.87794231    -0.13100
C773        C  0.37928687  0.08608524  0.86142478     0.05400
C774        C  0.39756767  0.07712259  0.84583342    -0.09100
C775        C  0.42639240  0.05460486  0.84659710     0.06200
C776        C  0.43738720  0.04130764  0.86304983    -0.13500
Br777      Br  0.37999609  0.98332613  0.89072563    -0.05500
Br778      Br  0.51686994  0.05901352  0.93006972     0.00100
Br779      Br  0.33885208  0.11589832  0.86012433     0.00500
Br780      Br  0.47640623  0.00963476  0.86412819    -0.03900
Br781      Br  0.41102635  0.95108740  0.92898535     0.00600
Br782      Br  0.47643354  0.09905594  0.89633192    -0.03200
Br783      Br  0.36665747  0.08614112  0.89952214    -0.04000
Br784      Br  0.45017697  0.04157319  0.82497237    -0.00100
C785        C  0.58817128  0.88092402  0.93297491     0.01400
C786        C  0.57170805  0.85160035  0.92539406     0.04200
C787        C  0.58743321  0.83427220  0.91107264    -0.11900
C788        C  0.61958331  0.84643255  0.90434348     0.23500
C789        C  0.63635671  0.87542614  0.91215576    -0.12400
C790        C  0.62068280  0.89260222  0.92654143     0.04900
C791        C  0.63478972  0.83004498  0.88840954     0.27300
C792        C  0.66332785  0.80715268  0.89010464    -0.13100
C793        C  0.67792231  0.79198778  0.87486203     0.05400
C794        C  0.66428401  0.80009297  0.85799504    -0.09100
C795        C  0.63632133  0.82354487  0.85622431     0.06200
C796        C  0.62138855  0.83841055  0.87146381    -0.13500
Br797      Br  0.67978838  0.89272411  0.90248125    -0.05500
Br798      Br  0.52678680  0.83645987  0.93416358     0.00100
Br799      Br  0.71698883  0.76048866  0.87693525     0.00500
Br800      Br  0.58359209  0.87138510  0.86913241    -0.03900
Br801      Br  0.64240175  0.93352722  0.93669716     0.00600
Br802      Br  0.56416742  0.79499572  0.90010948    -0.03200
Br803      Br  0.68324205  0.79765653  0.91319430    -0.04000
Br804      Br  0.62001701  0.83697085  0.83292778    -0.00100
C805        C  0.10329257  0.37029329  0.52133496     0.01400
C806        C  0.13895859  0.37805759  0.52376435     0.04200
C807        C  0.15995418  0.35561306  0.53383852    -0.11900
C808        C  0.14468411  0.32696437  0.54258663     0.23500
C809        C  0.10883910  0.31955589  0.54046085    -0.12400
C810        C  0.08827981  0.34083835  0.52948800     0.04900
C811        C  0.16544745  0.30712847  0.55557514     0.27300
C812        C  0.18693474  0.27945274  0.54999435    -0.13100
C813        C  0.20677254  0.26109105  0.56260512     0.05400
C814        C  0.20430481  0.26995081  0.58071840    -0.09100
C815        C  0.18327884  0.29794668  0.58623833     0.06200
C816        C  0.16406440  0.31675502  0.57363915    -0.13500
Br817      Br  0.08792046  0.28086910  0.55297722    -0.05500
Br818      Br  0.15842685  0.42050211  0.51416281     0.00100
Br819      Br  0.23809910  0.22457543  0.55517223     0.00500
Br820      Br  0.13600241  0.35596270  0.58104038    -0.03900
Br821      Br  0.03954547  0.33012667  0.52573444     0.00600
Br822      Br  0.20954050  0.36410234  0.53579615    -0.03200
Br823      Br  0.18916719  0.26699105  0.52516008    -0.04000
Br824      Br  0.18066297  0.31045796  0.61106004    -0.00100
C825        C  0.87969749  0.60756580  0.59086659     0.01400
C826        C  0.90817156  0.58956232  0.59843577     0.04200
C827        C  0.93026368  0.56970282  0.58755201    -0.11900
C828        C  0.92280212  0.56638324  0.56932030     0.23500
C829        C  0.89418411  0.58396867  0.56174478    -0.12400
C830        C  0.87311546  0.60527636  0.57245805     0.04900
C831        C  0.94503323  0.54433001  0.55803899     0.27300
C832        C  0.97423715  0.55903624  0.54948773    -0.13100
C833        C  0.99376922  0.53878065  0.53763284     0.05400
C834        C  0.98331749  0.50431660  0.53394319    -0.09100
C835        C  0.95542545  0.48892949  0.54327191     0.06200
C836        C  0.93625905  0.50899390  0.55540609    -0.13500
Br837      Br  0.88389664  0.57845451  0.53672882    -0.05500
Br838      Br  0.91585576  0.59035726  0.62380483     0.00100
Br839      Br  0.03423037  0.55825975  0.52596281     0.00500
Br840      Br  0.89698465  0.48880432  0.56777434    -0.03900
Br841      Br  0.83624742  0.63242843  0.56183244     0.00600
Br842      Br  0.97080520  0.54692218  0.59743874    -0.03200
Br843      Br  0.98620162  0.60737168  0.55331095    -0.04000
Br844      Br  0.94263992  0.44101942  0.53872310    -0.00100
C845        C  0.08478408  0.52235269  0.91852145     0.01400
C846        C  0.07359102  0.55530653  0.91262042     0.04200
C847        C  0.09188338  0.57221792  0.89896627    -0.11900
C848        C  0.11974013  0.55504569  0.89047912     0.23500
C849        C  0.12906870  0.52098078  0.89545233    -0.12400
C850        C  0.11274600  0.50530631  0.91007285     0.04900
C851        C  0.14211361  0.57434440  0.87800890     0.27300
C852        C  0.13462947  0.57432349  0.85968675    -0.13100
C853        C  0.15573919  0.59375087  0.84807468     0.05400
C854        C  0.18443238  0.61268458  0.85483261    -0.09100
C855        C  0.19238698  0.61197928  0.87308874     0.06200
C856        C  0.17122978  0.59271750  0.88470319    -0.13500
Br857      Br  0.16467812  0.49635707  0.88241488    -0.05500
Br858      Br  0.03411244  0.57757877  0.92376150     0.00100
Br859      Br  0.14550650  0.59442252  0.82295285     0.00500
Br860      Br  0.18211979  0.59111224  0.90979726    -0.03900
Br861      Br  0.13004075  0.46170151  0.91927388     0.00600
Br862      Br  0.08015761  0.61945520  0.89251742    -0.03200
Br863      Br  0.09601331  0.54713298  0.85061288    -0.04000
Br864      Br  0.23199097  0.63772381  0.88214704    -0.00100
C865        C  0.86010973  0.29286508  0.86525908     0.01400
C866        C  0.88842469  0.31403404  0.85996819     0.04200
C867        C  0.90614006  0.33478908  0.87259394    -0.11900
C868        C  0.89627334  0.33376167  0.89065886     0.23500
C869        C  0.86918166  0.31112276  0.89607944    -0.12400
C870        C  0.85099716  0.29088727  0.88337877     0.04900
C871        C  0.91520933  0.35570958  0.90395690     0.27300
C872        C  0.94509984  0.34253929  0.91258852    -0.13100
C873        C  0.96403150  0.36366623  0.92457040     0.05400
C874        C  0.95281409  0.39790791  0.92830180    -0.09100
C875        C  0.92324749  0.41133259  0.91944285     0.06200
C876        C  0.90438542  0.39023254  0.90736919    -0.13500
Br877      Br  0.85740223  0.30761733  0.92093856    -0.05500
Br878      Br  0.90292703  0.31459004  0.83539233     0.00100
Br879      Br  0.00661209  0.34653488  0.93511401     0.00500
Br880      Br  0.86406231  0.40868661  0.89521534    -0.03900
Br881      Br  0.81446438  0.25934875  0.89076629     0.00600
Br882      Br  0.94397498  0.36479243  0.86521152    -0.03200
Br883      Br  0.96039126  0.29564122  0.90765540    -0.04000
Br884      Br  0.90967184  0.45914345  0.92330988    -0.00100
C885        C  0.60966494  0.04163699  0.52471529     0.01400
C886        C  0.60143323  0.07742037  0.52459450     0.04200
C887        C  0.62161231  0.10091865  0.53466348    -0.11900
C888        C  0.64878235  0.08827564  0.54552919     0.23500
C889        C  0.65476477  0.05211720  0.54686548    -0.12400
C890        C  0.63591186  0.02887694  0.53605706     0.04900
C891        C  0.67173520  0.11265583  0.55538152     0.27300
C892        C  0.70477518  0.12140512  0.54842149    -0.13100
C893        C  0.72885149  0.14019264  0.55889973     0.05400
C894        C  0.71922155  0.15175432  0.57602579    -0.09100
C895        C  0.68548496  0.14410705  0.58265068     0.06200
C896        C  0.66201886  0.12420345  0.57241192    -0.13500
Br897      Br  0.68875603  0.03457942  0.56356530    -0.05500
Br898      Br  0.56255867  0.09388836  0.51056704     0.00100
Br899      Br  0.77528877  0.14900345  0.54999082     0.00500
Br900      Br  0.61736142  0.11053009  0.58211862    -0.03900
Br901      Br  0.64697578  0.97982504  0.53610779     0.00600
Br902      Br  0.61265708  0.15029357  0.53330230    -0.03200
Br903      Br  0.71717842  0.10651405  0.52470829    -0.04000
Br904      Br  0.67222768  0.15763230  0.60647597    -0.00100
C905        C  0.48265869  0.91155302  0.52808258     0.01400
C906        C  0.49899761  0.88706524  0.53925688     0.04200
C907        C  0.48060312  0.87286448  0.55367365    -0.11900
C908        C  0.44520876  0.88141839  0.55621351     0.23500
C909        C  0.42856536  0.90521786  0.54475679    -0.12400
C910        C  0.44762178  0.92109578  0.53100710     0.04900
C911        C  0.42516469  0.86346798  0.57026418     0.27300
C912        C  0.40930009  0.83119017  0.56644115    -0.13100
C913        C  0.39278696  0.81227044  0.58003676     0.05400
C914        C  0.39163190  0.82594675  0.59749866    -0.09100
C915        C  0.40717256  0.85860925  0.60122998     0.06200
C916        C  0.42404985  0.87727152  0.58760882    -0.13500
Br917      Br  0.37959039  0.91530275  0.54767811    -0.05500
Br918      Br  0.54613342  0.87221231  0.53441979     0.00100
Br919      Br  0.37162818  0.76775903  0.57447161     0.00500
Br920      Br  0.44700965  0.92104520  0.59272795    -0.03900
Br921      Br  0.42619128  0.95642792  0.51637610     0.00600
Br922      Br  0.50368417  0.84164282  0.57000655    -0.03200
Br923      Br  0.41105638  0.81273556  0.54252169    -0.04000
Br924      Br  0.40785270  0.87667031  0.62521651    -0.00100
C925        C  0.46356556  0.02675469  0.01898179     0.01400
C926        C  0.43873530  0.01269530  0.03078500     0.04200
C927        C  0.42592979  0.03314975  0.04480973    -0.11900
C928        C  0.43831528  0.06750468  0.04713507     0.23500
C929        C  0.46280091  0.08170711  0.03518852    -0.12400
C930        C  0.47488674  0.06155561  0.02087884     0.04900
C931        C  0.42451609  0.08905704  0.06179150     0.27300
C932        C  0.39671254  0.11208037  0.05846943    -0.13100
C933        C  0.38260668  0.13171805  0.07246778     0.05400
C934        C  0.39472393  0.12666115  0.08996788    -0.09100
C935        C  0.42237736  0.10341036  0.09332738     0.06200
C936        C  0.43816957  0.08558886  0.07911363    -0.13500
Br937      Br  0.48062472  0.12827065  0.03889434    -0.05500
Br938      Br  0.42269191  0.96529364  0.02773778     0.00100
Br939      Br  0.34683889  0.16569982  0.06766139     0.00500
Br940      Br  0.47823020  0.05623435  0.08323972    -0.03900
Br941      Br  0.50732740  0.08127869  0.00401473     0.00600
Br942      Br  0.39182941  0.01407113  0.06102026    -0.03200
Br943      Br  0.37718240  0.11558351  0.03483982    -0.04000
Br944      Br  0.43690402  0.09419755  0.11744469    -0.00100
C945        C  0.44286789  0.36583936  0.18529061     0.01400
C946        C  0.46614159  0.34810177  0.17391359     0.04200
C947        C  0.45431122  0.31972788  0.16373738    -0.11900
C948        C  0.41942691  0.30837315  0.16520854     0.23500
C949        C  0.39597317  0.32638823  0.17637342    -0.12400
C950        C  0.40757229  0.35559440  0.18612820     0.04900
C951        C  0.40773756  0.27734676  0.15503339     0.27300
C952        C  0.38813882  0.28151918  0.13928104    -0.13100
C953        C  0.37708382  0.25201207  0.12965379     0.05400
C954        C  0.38660253  0.21846349  0.13544947    -0.09100
C955        C  0.40743289  0.21431811  0.15072320     0.06200
C956        C  0.41757798  0.24368538  0.16068527    -0.13500
Br957      Br  0.34836809  0.31031317  0.17873287    -0.05500
Br958      Br  0.51458321  0.36213409  0.17239325     0.00100
Br959      Br  0.34879501  0.25733487  0.10856631     0.00500
Br960      Br  0.44496156  0.23782757  0.18206646    -0.03900
Br961      Br  0.37514697  0.38181961  0.20038942     0.00600
Br962      Br  0.48609423  0.29589889  0.14795183    -0.03200
Br963      Br  0.37713748  0.32767107  0.13075710    -0.04000
Br964      Br  0.42209923  0.16830617  0.15786354    -0.00100
C965        C  0.09301152  0.39706841  0.43069886     0.01400
C966        C  0.07324975  0.37707766  0.41859232     0.04200
C967        C  0.08884401  0.36489539  0.40295054    -0.11900
C968        C  0.12387132  0.37342800  0.39930588     0.23500
C969        C  0.14377406  0.39309994  0.41150042    -0.12400
C970        C  0.12828179  0.40498077  0.42724682     0.04900
C971        C  0.14019452  0.36019187  0.38299439     0.27300
C972        C  0.15751205  0.32796423  0.38344025    -0.13100
C973        C  0.17304626  0.31495374  0.36795309     0.05400
C974        C  0.17047475  0.33379886  0.35193957    -0.09100
C975        C  0.15294278  0.36603808  0.35148808     0.06200
C976        C  0.13789244  0.37936011  0.36708119    -0.13500
Br977      Br  0.19227463  0.40315682  0.40669904    -0.05500
Br978      Br  0.02478671  0.36683865  0.42340614     0.00100
Br979      Br  0.19932362  0.27230760  0.36902518     0.00500
Br980      Br  0.11413203  0.42369984  0.36675948    -0.03900
Br981      Br  0.15483152  0.43289214  0.44387703     0.00600
Br982      Br  0.06273126  0.33578825  0.38668099    -0.03200
Br983      Br  0.15984689  0.30188460  0.40538605    -0.04000
Br984      Br  0.14916571  0.39166798  0.32951253    -0.00100
C985        C  0.27068575  0.33803447  0.31211949     0.01400
C986        C  0.29952984  0.31542270  0.31043700     0.04200
C987        C  0.33232564  0.32883141  0.30562049    -0.11900
C988        C  0.33680116  0.36497499  0.30323875     0.23500
C989        C  0.30870109  0.38786242  0.30611565    -0.12400
C990        C  0.27543102  0.37438101  0.31008347     0.04900
C991        C  0.36999991  0.37817428  0.29580114     0.27300
C992        C  0.39971858  0.38199158  0.30669866    -0.13100
C993        C  0.43222720  0.39012358  0.29902480     0.05400
C994        C  0.43481116  0.39540619  0.28049377    -0.09100
C995        C  0.40449823  0.39339306  0.26975854     0.06200
C996        C  0.37232529  0.38418525  0.27737551    -0.13500
Br997      Br  0.31589929  0.43759202  0.30423513    -0.05500
Br998      Br  0.29482169  0.26618753  0.31539056     0.00100
Br999      Br  0.47351673  0.39164335  0.31379048     0.00500
Br1000     Br  0.33139274  0.37868538  0.26248372    -0.03900
Br1001     Br  0.23621404  0.40573586  0.31130782     0.00600
Br1002     Br  0.37108275  0.29759789  0.30176923    -0.03200
Br1003     Br  0.39583363  0.37503374  0.33203942    -0.04000
Br1004     Br  0.40596340  0.40484869  0.24477539    -0.00100
C1005       C  0.61574435  0.02956391  0.43398811     0.01400
C1006       C  0.60759271  0.06478672  0.43068031     0.04200
C1007       C  0.62652972  0.08363837  0.41788121    -0.11900
C1008       C  0.65439891  0.06764183  0.40880214     0.23500
C1009       C  0.66414556  0.03322049  0.41307253    -0.12400
C1010       C  0.64442347  0.01397205  0.42542826     0.04900
C1011       C  0.67128328  0.08589231  0.39370221     0.27300
C1012       C  0.65944642  0.07919447  0.37625532    -0.13100
C1013       C  0.67452228  0.09690224  0.36178416     0.05400
C1014       C  0.70134304  0.12146821  0.36474321    -0.09100
C1015       C  0.71314025  0.12823183  0.38217378     0.06200
C1016       C  0.69826878  0.11032445  0.39665663    -0.13500
Br1017     Br  0.70481131  0.01284025  0.40215815    -0.05500
Br1018     Br  0.57097289  0.08727961  0.44403190     0.00100
Br1019     Br  0.65871086  0.08730120  0.33789973     0.00500
Br1020     Br  0.71503331  0.11882641  0.42048346    -0.03900
Br1021     Br  0.65693221  0.96652425  0.43100987     0.00600
Br1022     Br  0.61423631  0.13130041  0.41266281    -0.03200
Br1023     Br  0.62253313  0.04557639  0.37229905    -0.04000
Br1024     Br  0.74963240  0.16220455  0.38609458    -0.00100
C1025       C  0.70963134  0.21721637  0.32103306     0.01400
C1026       C  0.71024196  0.24868425  0.33076225     0.04200
C1027       C  0.70125858  0.28026103  0.32235870    -0.11900
C1028       C  0.69117797  0.28034067  0.30430627     0.23500
C1029       C  0.69059222  0.24887055  0.29461110    -0.12400
C1030       C  0.69955496  0.21739066  0.30298336     0.04900
C1031       C  0.67728341  0.31251661  0.29596179     0.27300
C1032       C  0.64193304  0.32121401  0.29856052    -0.13100
C1033       C  0.62693418  0.34883602  0.28897699     0.05400
C1034       C  0.64728121  0.36796992  0.27673678    -0.09100
C1035       C  0.68304650  0.36035286  0.27474776     0.06200
C1036       C  0.69808892  0.33263411  0.28436036    -0.13500
Br1037     Br  0.67689054  0.24886688  0.26986903    -0.05500
Br1038     Br  0.72384593  0.24863528  0.35548375     0.00100
Br1039     Br  0.57791474  0.35908886  0.29199210     0.00500
Br1040     Br  0.74677195  0.32135389  0.28123746    -0.03900
Br1041     Br  0.69605458  0.17412926  0.28995098     0.00600
Br1042     Br  0.70266742  0.32353762  0.33544843    -0.03200
Br1043     Br  0.61360528  0.29396320  0.31465872    -0.04000
Br1044     Br  0.71116660  0.38747596  0.25862538    -0.00100
C1045       C  0.18849409  0.61037597  0.08620232     0.01400
C1046       C  0.15673777  0.59179739  0.08723597     0.04200
C1047       C  0.14223015  0.57637681  0.07187191    -0.11900
C1048       C  0.15922786  0.57967937  0.05531319     0.23500
C1049       C  0.19148410  0.59751835  0.05435307    -0.12400
C1050       C  0.20590852  0.61307218  0.06974058     0.04900
C1051       C  0.14277286  0.56445567  0.03904653     0.27300
C1052       C  0.15365505  0.53168081  0.03257764    -0.13100
C1053       C  0.13566682  0.51573211  0.01834251     0.05400
C1054       C  0.10619528  0.53202065  0.01079958    -0.09100
C1055       C  0.09594520  0.56522641  0.01686649     0.06200
C1056       C  0.11428529  0.58149991  0.03087903    -0.13500
Br1057     Br  0.21615776  0.60005882  0.03203492    -0.05500
Br1058     Br  0.13337914  0.58694173  0.10978984     0.00100
Br1059     Br  0.15021580  0.47075369  0.00961446     0.00500
Br1060     Br  0.09915174  0.62632629  0.03957970    -0.03900
Br1061     Br  0.24927651  0.63864274  0.06828134     0.00600
Br1062     Br  0.09945185  0.54973955  0.07351753    -0.03200
Br1063     Br  0.19165775  0.50755596  0.04404627    -0.04000
Br1064     Br  0.05545115  0.58734900  0.00658146    -0.00100
C1065       C  0.27078764  0.60703639  0.13727557     0.01400
C1066       C  0.26966208  0.60913534  0.15609338     0.04200
C1067       C  0.29887738  0.59945046  0.16633702    -0.11900
C1068       C  0.32857249  0.58527799  0.15806206     0.23500
C1069       C  0.32859139  0.58011246  0.13948590    -0.12400
C1070       C  0.30018169  0.59161067  0.12904055     0.04900
C1071       C  0.35957344  0.57553676  0.16900081     0.27300
C1072       C  0.38723097  0.59946434  0.17153789    -0.13100
C1073       C  0.41627554  0.59042576  0.18219591     0.05400
C1074       C  0.41803950  0.55711077  0.19015443    -0.09100
C1075       C  0.39029041  0.53318053  0.18747001     0.06200
C1076       C  0.36116132  0.54245102  0.17704228    -0.13500
Br1077     Br  0.36802045  0.55770686  0.12839977    -0.05500
Br1078     Br  0.22749686  0.62360041  0.16815058     0.00100
Br1079     Br  0.45469809  0.62274239  0.18462662     0.00500
Br1080     Br  0.32369616  0.50943405  0.17323767    -0.03900
Br1081     Br  0.30316471  0.58795519  0.10347394     0.00600
Br1082     Br  0.29871804  0.60642004  0.19177663    -0.03200
Br1083     Br  0.38580564  0.64404742  0.15966654    -0.04000
Br1084     Br  0.39201429  0.48727686  0.19802346    -0.00100
C1085       C  0.13926644  0.05888540  0.16464083     0.01400
C1086       C  0.14302003  0.09532775  0.16359906     0.04200
C1087       C  0.17143208  0.10985651  0.15435658    -0.11900
C1088       C  0.19607624  0.08784465  0.14622140     0.23500
C1089       C  0.19049701  0.05154893  0.14578704    -0.12400
C1090       C  0.16198509  0.03703517  0.15497142     0.04900
C1091       C  0.22981487  0.10247123  0.14021928     0.27300
C1092       C  0.23331066  0.11640289  0.12301158    -0.13100
C1093       C  0.26509505  0.13172168  0.11783891     0.05400
C1094       C  0.29388929  0.13155358  0.12955476    -0.09100
C1095       C  0.29035676  0.11764507  0.14680415     0.06200
C1096       C  0.25815364  0.10361536  0.15221767    -0.13500
Br1097     Br  0.22334449  0.02181599  0.13362244    -0.05500
Br1098     Br  0.11019899  0.12513989  0.17559156     0.00100
Br1099     Br  0.26828893  0.15544303  0.09530497     0.00500
Br1100     Br  0.25244936  0.08653226  0.17621239    -0.03900
Br1101     Br  0.15535942  0.98714196  0.15522695     0.00600
Br1102     Br  0.17820942  0.15973598  0.15385159    -0.03200
Br1103     Br  0.19438624  0.11481825  0.10670958    -0.04000
Br1104     Br  0.32967495  0.11720234  0.16293589    -0.00100
C1105       C  0.12528618  0.09587109  0.25846975     0.01400
C1106       C  0.09988183  0.12112599  0.26295051     0.04200
C1107       C  0.11019464  0.15345869  0.27008169    -0.11900
C1108       C  0.14589777  0.16160300  0.27183246     0.23500
C1109       C  0.17130067  0.13788146  0.26572082    -0.12400
C1110       C  0.16108165  0.10494690  0.25915658     0.04900
C1111       C  0.15670987  0.19301904  0.28201648     0.27300
C1112       C  0.15579184  0.22650466  0.27426056    -0.13100
C1113       C  0.16600501  0.25587960  0.28430270     0.05400
C1114       C  0.17800815  0.25170283  0.30190459    -0.09100
C1115       C  0.17853239  0.21827413  0.30966561     0.06200
C1116       C  0.16732530  0.18912470  0.29986011    -0.13500
Br1117     Br  0.22024065  0.14985700  0.26749628    -0.05500
Br1118     Br  0.05081695  0.11273822  0.25855343     0.00100
Br1119     Br  0.16250285  0.30203934  0.27425446     0.00500
Br1120     Br  0.16621206  0.14363947  0.31092189    -0.03900
Br1121     Br  0.19648199  0.07180883  0.25228453     0.00600
Br1122     Br  0.07535736  0.18574892  0.27858960    -0.03200
Br1123     Br  0.14060643  0.23206747  0.24995324    -0.04000
Br1124     Br  0.19617485  0.21182313  0.33343031    -0.00100
C1125       C  0.94575846  0.06277606  0.27632976     0.01400
C1126       C  0.93271335  0.09618626  0.27241706     0.04200
C1127       C  0.90604663  0.11054854  0.28293982    -0.11900
C1128       C  0.89166316  0.09096877  0.29700301     0.23500
C1129       C  0.90541406  0.05806429  0.30128636    -0.12400
C1130       C  0.93292584  0.04423612  0.29118501     0.04900
C1131       C  0.85933297  0.10286256  0.30578727     0.27300
C1132       C  0.86082352  0.12211282  0.32173693    -0.13100
C1133       C  0.82971019  0.13334569  0.32981857     0.05400
C1134       C  0.79729302  0.12561518  0.32182166    -0.09100
C1135       C  0.79582478  0.10572419  0.30609585     0.06200
C1136       C  0.82682160  0.09396640  0.29820305    -0.13500
Br1137     Br  0.88415629  0.03072312  0.31996391    -0.05500
Br1138     Br  0.95046674  0.12155821  0.25218442     0.00100
Br1139     Br  0.83131744  0.15981054  0.35164518     0.00500
Br1140     Br  0.82495137  0.06512083  0.27713357    -0.03900
Br1141     Br  0.95069515  0.99865025  0.29695010     0.00600
Br1142     Br  0.88756773  0.15604428  0.27746577    -0.03200
Br1143     Br  0.90542366  0.13290997  0.33239890    -0.04000
Br1144     Br  0.75136527  0.09457734  0.29537750    -0.00100
C1145       C  0.13076383  0.85761458  0.17431279     0.01400
C1146       C  0.14187611  0.82822848  0.18407292     0.04200
C1147       C  0.15733804  0.79991985  0.17521965    -0.11900
C1148       C  0.16024947  0.80016667  0.15654543     0.23500
C1149       C  0.14910249  0.82934406  0.14676515    -0.12400
C1150       C  0.13413958  0.85796735  0.15558030     0.04900
C1151       C  0.17220535  0.76856181  0.14704932     0.27300
C1152       C  0.20741438  0.76501077  0.14207871    -0.13100
C1153       C  0.21861104  0.73446579  0.13341809     0.05400
C1154       C  0.19442696  0.70752275  0.12947587    -0.09100
C1155       C  0.15893775  0.71168461  0.13412382     0.06200
C1156       C  0.14793028  0.74211283  0.14290688    -0.13500
Br1157     Br  0.15464821  0.82988597  0.12123372    -0.05500
Br1158     Br  0.13258161  0.82480420  0.20928206     0.00100
Br1159     Br  0.26714211  0.72993133  0.12686134     0.00500
Br1160     Br  0.09956555  0.74751920  0.14968630    -0.03900
Br1161     Br  0.11848593  0.89736529  0.14174079     0.00600
Br1162     Br  0.17455037  0.76064105  0.18861499    -0.03200
Br1163     Br  0.24010789  0.80210331  0.14729805    -0.04000
Br1164     Br  0.12551487  0.67492177  0.12978161    -0.00100
C1165       C  0.89381025  0.32702004  0.09445044     0.01400
C1166       C  0.92390022  0.34743574  0.09743556     0.04200
C1167       C  0.94041044  0.36399189  0.08305813    -0.11900
C1168       C  0.92694445  0.35975388  0.06574674     0.23500
C1169       C  0.89763923  0.33825765  0.06270147    -0.12400
C1170       C  0.88069981  0.32234056  0.07711018     0.04900
C1171       C  0.94318518  0.37822521  0.05068470     0.27300
C1172       C  0.92910877  0.41014119  0.04485012    -0.13100
C1173       C  0.94289602  0.42648917  0.02969244     0.05400
C1174       C  0.97137085  0.41134849  0.02073518    -0.09100
C1175       C  0.98631855  0.38018942  0.02703633     0.06200
C1176       C  0.97199793  0.36342495  0.04191598    -0.13500
Br1177     Br  0.88147736  0.32993678  0.03872285    -0.05500
Br1178     Br  0.94184344  0.35341887  0.12124906     0.00100
Br1179     Br  0.92315501  0.46964016  0.02124377     0.00500
Br1180     Br  0.99182982  0.32034509  0.05043188    -0.03900
Br1181     Br  0.83988747  0.29365690  0.07312450     0.00600
Br1182     Br  0.98157731  0.39221004  0.08691956    -0.03200
Br1183     Br  0.89151664  0.43162436  0.05793309    -0.04000
Br1184     Br  0.02673957  0.36088517  0.01536594    -0.00100
C1185       C  0.88939069  0.23472452  0.13976808     0.01400
C1186       C  0.90732089  0.20879517  0.12986385     0.04200
C1187       C  0.92022407  0.17893997  0.13849339    -0.11900
C1188       C  0.91494101  0.17445748  0.15684399     0.23500
C1189       C  0.89819957  0.20041277  0.16685318    -0.12400
C1190       C  0.88569721  0.23060773  0.15845302     0.04900
C1191       C  0.92708867  0.14223784  0.16561043     0.27300
C1192       C  0.90629900  0.11185167  0.16492453    -0.13100
C1193       C  0.91857998  0.08076025  0.17253884     0.05400
C1194       C  0.95150729  0.08019551  0.18088010    -0.09100
C1195       C  0.97189408  0.11077758  0.18195638     0.06200
C1196       C  0.95990887  0.14168709  0.17408526    -0.13500
Br1197     Br  0.89279306  0.19451938  0.19223240    -0.05500
Br1198     Br  0.91338992  0.21230384  0.10439138     0.00100
Br1199     Br  0.89134128  0.03848667  0.17063278     0.00500
Br1200     Br  0.98910992  0.18281283  0.17403863    -0.03900
Br1201     Br  0.86540153  0.26668149  0.17320806     0.00600
Br1202     Br  0.94531663  0.14368182  0.12531145    -0.03200
Br1203     Br  0.86187782  0.11253405  0.15273118    -0.04000
Br1204     Br  0.01607876  0.11039078  0.19439293    -0.00100
C1205       C  0.79656307  0.32226855  0.13688197     0.01400
C1206       C  0.79460660  0.35842040  0.14069795     0.04200
C1207       C  0.76478301  0.37204570  0.14906100    -0.11900
C1208       C  0.73770876  0.34956233  0.15443229     0.23500
C1209       C  0.73961703  0.31362937  0.15082730    -0.12400
C1210       C  0.76852869  0.30008708  0.14169687     0.04900
C1211       C  0.70611718  0.36391602  0.16292179     0.27300
C1212       C  0.70595993  0.37165316  0.18124226    -0.13100
C1213       C  0.67589035  0.38576490  0.18906203     0.05400
C1214       C  0.64497605  0.38886385  0.17899002    -0.09100
C1215       C  0.64506345  0.38078192  0.16067832     0.06200
C1216       C  0.67603667  0.36958793  0.15254242    -0.13500
Br1217     Br  0.70214492  0.28310614  0.15827513    -0.05500
Br1218     Br  0.83313304  0.38954897  0.13562480     0.00100
Br1219     Br  0.67812225  0.40391988  0.21301160     0.00500
Br1220     Br  0.67763477  0.36218840  0.12713558    -0.03900
Br1221     Br  0.76826940  0.25141814  0.13496060     0.00600
Br1222     Br  0.76038720  0.42167895  0.15290810    -0.03200
Br1223     Br  0.74660388  0.36239511  0.19566796    -0.04000
Br1224     Br  0.60269658  0.38334459  0.14678737    -0.00100
C1225       C  0.47857161  0.90887929  0.43574096     0.01400
C1226       C  0.44235618  0.91522619  0.43431687     0.04200
C1227       C  0.42283441  0.89867151  0.42087585    -0.11900
C1228       C  0.43975873  0.87688019  0.40854126     0.23500
C1229       C  0.47573733  0.87018088  0.41010688    -0.12400
C1230       C  0.49497509  0.88556912  0.42393079     0.04900
C1231       C  0.41951735  0.85915726  0.39449269     0.27300
C1232       C  0.40621312  0.82554394  0.39770287    -0.13100
C1233       C  0.38880935  0.80745915  0.38408897     0.05400
C1234       C  0.38470226  0.82306732  0.36721726    -0.09100
C1235       C  0.39776736  0.85693690  0.36406392     0.06200
C1236       C  0.41553164  0.87483350  0.37768362    -0.13500
Br1237     Br  0.49833818  0.83925489  0.39345748    -0.05500
Br1238     Br  0.41953334  0.94649590  0.45070237     0.00100
Br1239     Br  0.37061290  0.76130171  0.38870540     0.00500
Br1240     Br  0.43661780  0.91970428  0.37305991    -0.03900
Br1241     Br  0.54349950  0.87363403  0.42717573     0.00600
Br1242     Br  0.37284451  0.90477198  0.41957527    -0.03200
Br1243     Br  0.41366720  0.80373745  0.42055331    -0.04000
Br1244     Br  0.39378349  0.87781389  0.34077375    -0.00100
C1245       C  0.29723238  0.80805462  0.31979548     0.01400
C1246       C  0.26672725  0.81889175  0.32876997     0.04200
C1247       C  0.23819812  0.83186398  0.31904328    -0.11900
C1248       C  0.24018818  0.83441983  0.30039899     0.23500
C1249       C  0.27040952  0.82348782  0.29139010    -0.12400
C1250       C  0.29885858  0.81010876  0.30102493     0.04900
C1251       C  0.21122553  0.85045492  0.29032442     0.27300
C1252       C  0.18412501  0.82956288  0.28333119    -0.13100
C1253       C  0.15668934  0.84511446  0.27376461     0.05400
C1254       C  0.15676038  0.88137807  0.27097568    -0.09100
C1255       C  0.18371952  0.90231031  0.27810742     0.06200
C1256       C  0.21107818  0.88679302  0.28766374    -0.13500
Br1257     Br  0.27297414  0.82802127  0.26583393    -0.05500
Br1258     Br  0.26328052  0.81512995  0.35433714     0.00100
Br1259     Br  0.11923612  0.81692098  0.26425390     0.00500
Br1260     Br  0.24897536  0.91506695  0.29673666    -0.03900
Br1261     Br  0.34061954  0.79668690  0.28836466     0.00600
Br1262     Br  0.19633149  0.84656892  0.33117403    -0.03200
Br1263     Br  0.18534376  0.77966491  0.28643067    -0.04000
Br1264     Br  0.18286125  0.95235800  0.27512926    -0.00100
C1265       C  0.38754746  0.72000510  0.32946315     0.01400
C1266       C  0.41914199  0.72091093  0.31993157     0.04200
C1267       C  0.43408973  0.68966402  0.31399989    -0.11900
C1268       C  0.41743017  0.65764974  0.31770380     0.23500
C1269       C  0.38693470  0.65667624  0.32809810    -0.12400
C1270       C  0.37176546  0.68797428  0.33385457     0.04900
C1271       C  0.42982174  0.62582205  0.30878641     0.27300
C1272       C  0.41539100  0.61667091  0.29219570    -0.13100
C1273       C  0.43085889  0.59032762  0.28199678     0.05400
C1274       C  0.46105305  0.57337007  0.28830333    -0.09100
C1275       C  0.47471560  0.58169356  0.30531654     0.06200
C1276       C  0.45832874  0.60727167  0.31574241    -0.13500
Br1277     Br  0.36564665  0.61249041  0.33387686    -0.05500
Br1278     Br  0.44074847  0.76503135  0.31410617     0.00100
Br1279     Br  0.41111282  0.57828509  0.25910318     0.00500
Br1280     Br  0.47540682  0.61804962  0.33930818    -0.03900
Br1281     Br  0.32918805  0.68717223  0.34752423     0.00600
Br1282     Br  0.47649100  0.69070271  0.30009556    -0.03200
Br1283     Br  0.37518373  0.64136117  0.28316610    -0.04000
Br1284     Br  0.51823171  0.56215994  0.31365857    -0.00100
C1285       C  0.58972122  0.89728425  0.02511514     0.01400
C1286       C  0.57477188  0.86930405  0.03457373     0.04200
C1287       C  0.59422650  0.85221637  0.04779962    -0.11900
C1288       C  0.62842569  0.86348455  0.05175829     0.23500
C1289       C  0.64261410  0.89274621  0.04302039    -0.12400
C1290       C  0.62362921  0.90908491  0.02936833     0.04900
C1291       C  0.65044757  0.84298027  0.06407314     0.27300
C1292       C  0.65126391  0.85099163  0.08235112    -0.13100
C1293       C  0.67347694  0.83228335  0.09378068     0.05400
C1294       C  0.69374835  0.80465092  0.08702379    -0.09100
C1295       C  0.69110872  0.79515385  0.06898477     0.06200
C1296       C  0.67035737  0.81501794  0.05739362    -0.13500
Br1297     Br  0.68798753  0.91030411  0.04985305    -0.05500
Br1298     Br  0.52814866  0.85366938  0.02883556     0.00100
Br1299     Br  0.67474340  0.84322396  0.11884150     0.00500
Br1300     Br  0.66914476  0.80402780  0.03233621    -0.03900
Br1301     Br  0.64446192  0.94662377  0.01596584     0.00600
Br1302     Br  0.57438859  0.81310923  0.06039342    -0.03200
Br1303     Br  0.62113509  0.88682588  0.09167695    -0.04000
Br1304     Br  0.71530771  0.75447882  0.06028675    -0.00100
C1305       C  0.70965585  0.70234524  0.12404032     0.01400
C1306       C  0.68253810  0.70618864  0.13650252     0.04200
C1307       C  0.66915260  0.67688638  0.14527406    -0.11900
C1308       C  0.68121071  0.64334835  0.14079090     0.23500
C1309       C  0.70710026  0.63920554  0.12765164    -0.12400
C1310       C  0.72176218  0.66886786  0.11944316     0.04900
C1311       C  0.66605000  0.61304758  0.15018127     0.27300
C1312       C  0.68184283  0.60108618  0.16596200    -0.13100
C1313       C  0.66338073  0.57865934  0.17735980     0.05400
C1314       C  0.62879582  0.56896810  0.17320412    -0.09100
C1315       C  0.61340775  0.57997643  0.15708626     0.06200
C1316       C  0.63254174  0.60108621  0.14532146    -0.13500
Br1317     Br  0.72203870  0.59305932  0.12096199    -0.05500
Br1318     Br  0.66320323  0.75165114  0.14142583     0.00100
Br1319     Br  0.68514928  0.56187444  0.19889921     0.00500
Br1320     Br  0.61219484  0.61574026  0.12303863    -0.03900
Br1321     Br  0.75734331  0.66383176  0.10152319     0.00600
Br1322     Br  0.63480562  0.68277652  0.16385095    -0.03200
Br1323     Br  0.72781059  0.61742660  0.17250815    -0.04000
Br1324     Br  0.56479039  0.57028699  0.15209895    -0.00100
C1325       C  0.79505673  0.79721542  0.12698927     0.01400
C1326       C  0.82501227  0.80654742  0.11714886     0.04200
C1327       C  0.85431970  0.82096118  0.12587769    -0.11900
C1328       C  0.85344555  0.82673644  0.14440269     0.23500
C1329       C  0.82306070  0.81849011  0.15412422    -0.12400
C1330       C  0.79397752  0.80374213  0.14545416     0.04900
C1331       C  0.88417130  0.84164942  0.15384059     0.27300
C1332       C  0.90523839  0.81998906  0.16454310    -0.13100
C1333       C  0.93097274  0.83477187  0.17564678     0.05400
C1334       C  0.93754098  0.87087049  0.17501963    -0.09100
C1335       C  0.91799858  0.89227075  0.16344991     0.06200
C1336       C  0.89072838  0.87782741  0.15325292    -0.13500
Br1337     Br  0.82124086  0.82777283  0.17938038    -0.05500
Br1338     Br  0.82622754  0.79886096  0.09179312     0.00100
Br1339     Br  0.95625373  0.80586865  0.19217225     0.00500
Br1340     Br  0.86153454  0.90780901  0.13899288    -0.03900
Br1341     Br  0.75195584  0.79420725  0.15879421     0.00600
Br1342     Br  0.89593269  0.83228085  0.11259093    -0.03200
Br1343     Br  0.89867808  0.77008431  0.16390278    -0.04000
Br1344     Br  0.92783834  0.94165423  0.16190255    -0.00100
C1345       C  0.91095228  0.60974610  0.36401825     0.01400
C1346       C  0.94339726  0.59243113  0.36468341     0.04200
C1347       C  0.95480297  0.57721803  0.38073149    -0.11900
C1348       C  0.93351000  0.57884585  0.39600488     0.23500
C1349       C  0.90171203  0.59708351  0.39546285    -0.12400
C1350       C  0.89097687  0.61334060  0.37963360     0.04900
C1351       C  0.94440230  0.56091260  0.41254713     0.27300
C1352       C  0.93667198  0.52526472  0.41480238    -0.13100
C1353       C  0.94943243  0.50741338  0.42974354     0.05400
C1354       C  0.97090100  0.52488784  0.44215963    -0.09100
C1355       C  0.97709305  0.56097769  0.44042084     0.06200
C1356       C  0.96333575  0.57910073  0.42573873    -0.13500
Br1357     Br  0.87278797  0.59934719  0.41641468    -0.05500
Br1358     Br  0.97232373  0.58987791  0.34376557     0.00100
Br1359     Br  0.93883631  0.45853517  0.43292699     0.00500
Br1360     Br  0.97124434  0.62855944  0.42331228    -0.03900
Br1361     Br  0.85009219  0.64253930  0.37962025     0.00600
Br1362     Br  0.99949467  0.55404603  0.38195410    -0.03200
Br1363     Br  0.90975999  0.50066575  0.39702477    -0.04000
Br1364     Br  0.00635491  0.58494667  0.45743719    -0.00100
C1365       C  0.67368422  0.55566149  0.26619489     0.01400
C1366       C  0.70183325  0.53195119  0.26730691     0.04200
C1367       C  0.73328108  0.54172561  0.27576223    -0.11900
C1368       C  0.73707749  0.57542047  0.28300925     0.23500
C1369       C  0.70999347  0.59995480  0.28074720    -0.12400
C1370       C  0.67856896  0.59027465  0.27213015     0.04900
C1371       C  0.76917934  0.58491828  0.29329692     0.27300
C1372       C  0.76955135  0.58181193  0.31198267    -0.13100
C1373       C  0.79844739  0.59402726  0.32193010     0.05400
C1374       C  0.82834151  0.60739984  0.31315760    -0.09100
C1375       C  0.82885093  0.60778463  0.29431085     0.06200
C1376       C  0.79903502  0.59766204  0.28449376    -0.13500
Br1377     Br  0.71556213  0.64643333  0.29021136    -0.05500
Br1378     Br  0.69788509  0.48627647  0.25661966     0.00100
Br1379     Br  0.79510488  0.59501486  0.34751910     0.00500
Br1380     Br  0.79858916  0.60200357  0.25892674    -0.03900
Br1381     Br  0.64187333  0.62411156  0.26915481     0.00600
Br1382     Br  0.77085182  0.50858174  0.27799278    -0.03200
Br1383     Br  0.73001389  0.56102745  0.32390442    -0.04000
Br1384     Br  0.87084375  0.62087901  0.28172245    -0.00100
C1385       C  0.96133302  0.86004272  0.27557668     0.01400
C1386       C  0.95638898  0.86326446  0.29416055     0.04200
C1387       C  0.94325329  0.83492907  0.30408585    -0.11900
C1388       C  0.93567427  0.80305353  0.29558909     0.23500
C1389       C  0.93995800  0.79994600  0.27705391    -0.12400
C1390       C  0.95266043  0.82828604  0.26706449     0.04900
C1391       C  0.92536946  0.77191339  0.30612816     0.27300
C1392       C  0.95112520  0.74794393  0.31150990    -0.13100
C1393       C  0.94136831  0.71590670  0.31922358     0.05400
C1394       C  0.90568194  0.70822510  0.32213365    -0.09100
C1395       C  0.88023664  0.73378247  0.31825652     0.06200
C1396       C  0.88994704  0.76504103  0.30976660    -0.13500
Br1397     Br  0.92904823  0.75628183  0.26544375    -0.05500
Br1398     Br  0.96674420  0.90653050  0.30615773     0.00100
Br1399     Br  0.97706800  0.68204463  0.32453345     0.00500
Br1400     Br  0.85465603  0.79778405  0.30237081    -0.03900
Br1401     Br  0.96047443  0.82222838  0.24189752     0.00600
Br1402     Br  0.93563340  0.83944976  0.32936217    -0.03200
Br1403     Br  0.99981822  0.75867193  0.30753800    -0.04000
Br1404     Br  0.83218701  0.72678415  0.32529492    -0.00100
loop_ 
_geom_bond_atom_site_label_1 
_geom_bond_atom_site_label_2 
_geom_bond_distance 
_geom_bond_site_symmetry_2 
_ccdc_geom_bond_type 
C1            N2   1.358       .  A
C1            N6   1.358       .  A
C1         C1394   1.483       .  S
N2            C3   1.359       .  A
C3            N4   1.364       .  A
C3         C1345   1.476       .  S
N4            C5   1.362       .  A
C5            N6   1.357       .  A
C5         C1374   1.494       .  S
C7            N8   1.358       .  A
C7           N12   1.354       .  A
C7         C1305   1.467       .  S
N8            C9   1.360       .  A
C9           N10   1.359       .  A
C9         C1325   1.477       .  S
N10          C11   1.359       .  A
C11          N12   1.354       .  A
C11        C1294   1.468       .  S
C13          N14   1.351       .  A
C13          N18   1.355       .  A
C13        C1265   1.460       .  S
N14          C15   1.354       .  A
C15          N16   1.357       .  A
C15        C1234   1.468       .  S
N16          C17   1.359       .  A
C17          N18   1.357       .  A
C17        C1245   1.476       .  S
C19          N20   1.356       .  A
C19          N24   1.356       .  A
C19        C1165   1.462       .  S
N20          C21   1.356       .  A
C21          N22   1.354       .  A
C21        C1205   1.479       .  S
N22          C23   1.355       .  A
C23          N24   1.356       .  A
C23        C1185   1.486       .  S
C25          N43   1.348       .  A
C25          C62   1.458       .  S
C25        C1254   1.466       .  S
N26          N43   1.322       .  A
N26          N48   1.319       .  A
N26         Co63   2.079       .  S
C27          N52   1.338       .  A
C27          C65   1.458       .  S
C27          H72   1.082       .  S
H28          C69   1.082       .  S
C29          N53   1.339   1_655  A
C29          C33   1.459       .  S
C29          H58   1.082   1_655  S
Co30         N48   2.073       .  S
Co30         N38   2.092       .  S
Co30         N70   2.082   1_565  S
Co30         N46   2.079   1_565  S
Co30        Cl74   2.455       .  S
N31          C69   1.340       .  A
N31          N38   1.321   1_655  A
N31         Co32   2.089       .  S
Co32         N35   2.085       .  S
Co32         N52   2.078   1_565  S
Co32         N39   2.087   1_565  S
Co32        Cl74   2.447   1_655  S
C33          N71   1.352       .  A
C33        C1334   1.472       .  S
N34          N41   1.320       .  A
N34          N64   1.322       .  A
N34         Co67   2.070       .  S
N35          N53   1.318   1_655  A
N35          N71   1.324       .  A
N36          C65   1.349       .  A
N36          N46   1.324   1_655  A
H37          C62   1.082       .  S
N38          N59   1.327       .  A
N39          N57   1.321   1_655  A
N39          N44   1.325       .  A
C40          N44   1.349       .  A
C40          C68   1.451       .  S
C40        C1194   1.465       .  S
N41          C56   1.339       .  A
N41         Co63   2.086       .  S
C42          N70   1.337       .  A
C42          C45   1.459       .  S
C42          H76   1.081       .  S
C45          N66   1.351       .  A
C45        C1105   1.483       .  S
N46          N52   1.319   1_455  A
N47          C73   1.337       .  A
N47          N49   1.318       .  A
N47         Co63   2.074   1_545  S
N48          C62   1.340       .  A
N49          N77   1.327       .  A
N49         Co67   2.086   1_545  S
H50          C73   1.082       .  S
H51          C68   1.081   1_455  S
N53         Co67   2.077       .  S
N54          N66   1.326       .  A
N54          N70   1.320       .  A
N54         Co63   2.086   1_545  S
C55          N59   1.352   1_655  A
C55          C69   1.461       .  S
C55        C1385   1.485       .  S
C56          C75   1.461       .  S
C56          H60   1.081       .  S
N57          C68   1.336   1_455  A
N57         Co67   2.070   1_545  S
C61          N77   1.351       .  A
C61          C73   1.457       .  S
C61        C1085   1.472       .  S
Co63        Cl74   2.443       .  S
N64          C75   1.347       .  A
C65        C1125   1.471       .  S
Co67        Cl74   2.450       .  S
C75        C1145   1.475       .  S
C78          N79   1.362       .  A
C78          N83   1.363       .  A
C78        C1045   1.481       .  S
N79          C80   1.361       .  A
C80          N81   1.353       .  A
C80        C1154   1.481       .  S
N81          C82   1.355       .  A
C82          N83   1.362       .  A
C82        C1065   1.490       .  S
C84          N85   1.353       .  A
C84          N89   1.356       .  A
C84        C1134   1.466       .  S
N85          C86   1.355       .  A
C86          N87   1.361       .  A
C86        C1025   1.475       .  S
N87          C88   1.362       .  A
C88          N89   1.358       .  A
C88        C1014   1.472       .  S
C90          N91   1.358       .  A
C90          N95   1.354       .  A
C90         C974   1.463       .  S
N91          C92   1.358       .  A
C92          N93   1.358       .  A
C92        C1114   1.473       .  S
N93          C94   1.358       .  A
C94          N95   1.354       .  A
C94         C985   1.474       .  S
C96          N97   1.359       .  A
C96         N101   1.356       .  A
C96         C934   1.468       .  S
N97          C98   1.359       .  A
C98          N99   1.356       .  A
C98         C954   1.466       .  S
N99         C100   1.355       .  A
C100        N101   1.355       .  A
C100       C1094   1.469       .  S
C102        N120   1.358       .  A
C102        C139   1.454       .  S
C102       C1365   1.488       .  S
N103        N120   1.332       .  A
N103        N125   1.322       .  A
N103       Co140   2.119       .  S
C104        N129   1.337       .  A
C104        C142   1.458       .  S
C104        H149   1.081       .  S
H105        C146   1.082       .  S
C106        N130   1.336       .  A
C106        C110   1.451       .  S
C106        H135   1.081       .  S
Co107       N125   2.076       .  S
Co107       N115   2.086       .  S
Co107       N147   2.069       .  S
Co107       N123   2.080       .  S
Co107      Cl151   2.444       .  S
N108        C146   1.339       .  A
N108        N115   1.317       .  A
N108       Co109   2.080       .  S
Co109       N112   2.085       .  S
Co109       N129   2.078       .  S
Co109       N116   2.079       .  S
Co109      Cl151   2.451       .  S
C110        N148   1.351       .  A
C110       C1214   1.467       .  S
N111        N118   1.319       .  A
N111        N141   1.323       .  A
N111       Co144   2.074       .  S
N112        N130   1.320       .  A
N112        N148   1.323       .  A
N113        C142   1.349       .  A
N113        N123   1.324       .  A
H114        C139   1.081       .  S
N115        N136   1.326       .  A
N116        N134   1.317       .  A
N116        N121   1.322       .  A
C117        N121   1.350       .  A
C117        C145   1.463       .  S
C117        C945   1.471       .  S
N118        C133   1.338       .  A
N118       Co140   2.071       .  S
C119        N147   1.338       .  A
C119        C122   1.456       .  S
C119        H153   1.082       .  S
C122        N143   1.348       .  A
C122       C1274   1.469       .  S
N123        N129   1.319       .  A
N124        C150   1.352       .  A
N124        N126   1.322       .  A
N124       Co140   2.125       .  S
N125        C139   1.336       .  A
N126        N154   1.319       .  A
N126       Co144   2.062       .  S
H127        C150   1.081       .  S
H128        C145   1.081       .  S
N130       Co144   2.064       .  S
N131        N143   1.321       .  A
N131        N147   1.318       .  A
N131       Co140   2.074       .  S
C132        N136   1.352       .  A
C132        C146   1.461       .  S
C132       C1034   1.476       .  S
C133        C152   1.457       .  S
C133        H137   1.082       .  S
N134        C145   1.340       .  A
N134       Co144   2.079       .  S
C138        N154   1.342       .  A
C138        C150   1.475       .  S
C138       C1074   1.486       .  S
Co140      Cl151   2.458       .  S
N141        C152   1.347       .  A
C142        C994   1.476       .  S
Co144      Cl151   2.441       .  S
C152       C1314   1.469       .  S
N155        C160   1.351       .  A
N155        C159   1.349       .  A
N155        H187   1.038       .  S
N156        C163   1.350       .  A
N156        C164   1.349       .  A
N157        C162   1.353       .  A
N157        C161   1.351       .  A
N157        H188   1.037       .  S
N158        C165   1.347       .  A
N158        C166   1.348       .  A
C159        C167   1.387       .  A
C159        C175   1.410       .  A
C160        C176   1.409   1_565  A
C160        C168   1.386   1_565  A
C161        C169   1.388       .  A
C161        C178   1.417       .  A
C162        C177   1.415   1_565  A
C162        C170   1.386       .  A
C163        C175   1.410       .  A
C163        C171   1.386       .  A
C164        C178   1.411       .  A
C164        C172   1.387       .  A
C165        C173   1.386       .  A
C165        C176   1.407       .  A
C166        C174   1.386       .  A
C166        C177   1.407       .  A
C167        H179   1.082       .  S
C167        C168   1.374   1_565  A
C168        H180   1.082       .  S
C169        H181   1.083       .  S
C169        C170   1.378       .  A
C170        H182   1.082   1_565  S
C171        H183   1.083       .  S
C171        C172   1.373       .  A
C172        H184   1.082       .  S
C173        H185   1.082       .  S
C173        C174   1.369       .  A
C174        H186   1.082       .  S
C175        C905   1.480       .  S
C176        C885   1.479       .  S
C177       C1005   1.484       .  S
C178       C1225   1.483       .  S
N189        C194   1.351   1_556  A
N189        C193   1.356   1_556  A
N189        H221   1.010       .  S
N190        C197   1.352       .  A
N190        C198   1.348       .  A
N191        C196   1.357   1_455  A
N191        C195   1.351       .  A
N191        H222   1.015       .  S
N192        C199   1.350       .  A
N192        C200   1.353       .  A
C193        C201   1.388       .  A
C193        C209   1.420   1_554  A
C194        C210   1.420   1_455  A
C194        C202   1.389       .  A
C195        C203   1.389       .  A
C195        C212   1.419       .  A
C196        C211   1.420       .  A
C196        C204   1.387   1_655  A
C197        C209   1.416       .  A
C197        C205   1.385       .  A
C198        C212   1.418       .  A
C198        C206   1.389       .  A
C199        C207   1.388       .  A
C199        C210   1.420   1_556  A
C200        C208   1.385       .  A
C200        C211   1.419       .  A
C201        H213   1.083       .  S
C201        C202   1.372       .  A
C202        H214   1.082       .  S
C203        H215   1.082       .  S
C203        C204   1.372       .  A
C204        H216   1.083   1_455  S
C205        H217   1.082       .  S
C205        C206   1.373       .  A
C206        H218   1.082       .  S
C207        H219   1.082       .  S
C207        C208   1.374       .  A
C208        H220   1.082       .  S
C209       C1054   1.493   1_556  S
C210       C1174   1.481       .  S
C211        C874   1.497       .  S
C212        C845   1.477       .  S
N223        C228   1.350       .  A
N223        C227   1.348       .  A
N223        H255   1.037       .  S
N224        C231   1.347       .  A
N224        C232   1.347       .  A
N225        C230   1.349       .  A
N225        C229   1.351       .  A
N225        H256   1.037       .  S
N226        C233   1.351   1_455  A
N226        C234   1.346   1_455  A
C227        C235   1.387       .  A
C227        C243   1.407       .  A
C228        C244   1.408   1_455  A
C228        C236   1.387       .  A
C229        C237   1.387       .  A
C229        C246   1.411       .  A
C230        C245   1.410   1_455  A
C230        C238   1.387       .  A
C231        C243   1.406       .  A
C231        C239   1.386       .  A
C232        C246   1.407       .  A
C232        C240   1.387       .  A
C233        C241   1.383       .  A
C233        C244   1.407       .  A
C234        C242   1.389       .  A
C234        C245   1.412       .  A
C235        H247   1.082       .  S
C235        C236   1.372       .  A
C236        H248   1.083       .  S
C237        H249   1.082       .  S
C237        C238   1.376       .  A
C238        H250   1.082       .  S
C239        H251   1.082       .  S
C239        C240   1.372       .  A
C240        H252   1.082       .  S
C241        H253   1.082       .  S
C241        C242   1.373       .  A
C242        H254   1.082       .  S
C243        C965   1.472       .  S
C244       C1354   1.484       .  S
C245        C834   1.474       .  S
C246        C805   1.477       .  S
N257        C262   1.351       .  A
N257        C261   1.350       .  A
N257        H289   1.033       .  S
N258        C265   1.349       .  A
N258        C266   1.349       .  A
N259        C264   1.351       .  A
N259        C263   1.353       .  A
N259        H290   1.033   1_554  S
N260        C267   1.350       .  A
N260        C268   1.349   1_565  A
C261        C269   1.388       .  A
C261        C277   1.413       .  A
C262        C278   1.414       .  A
C262        C270   1.388       .  A
C263        C271   1.386       .  A
C263        C280   1.414       .  A
C264        C279   1.417   1_565  A
C264        C272   1.389       .  A
C265        C277   1.409       .  A
C265        C273   1.386       .  A
C266        C280   1.411   1_556  A
C266        C274   1.387       .  A
C267        C275   1.386   1_565  A
C267        C278   1.411       .  A
C268        C276   1.387       .  A
C268        C279   1.412   1_556  A
C269        H281   1.082       .  S
C269        C270   1.371       .  A
C270        H282   1.082       .  S
C271        H283   1.082       .  S
C271        C272   1.374       .  A
C272        H284   1.082   1_565  S
C273        H285   1.082       .  S
C273        C274   1.372       .  A
C274        H286   1.082       .  S
C275        H287   1.082       .  S
C275        C276   1.373       .  A
C276        H288   1.082       .  S
C277        C785   1.477       .  S
C278        C765   1.481   1_565  S
C279        C925   1.480       .  S
C280       C1285   1.484       .  S
C291        N292   1.360       .  A
C291        N296   1.357       .  A
C291        C734   1.478       .  S
N292        C293   1.358       .  A
C293        N294   1.352       .  A
C293        C754   1.466       .  S
N294        C295   1.352       .  A
C295        N296   1.354       .  A
C295        C794   1.458       .  S
C297        N298   1.356       .  A
C297        N302   1.360       .  A
C297        C705   1.479       .  S
N298        C299   1.357       .  A
C299        N300   1.360       .  A
C299        C694   1.481       .  S
N300        C301   1.359       .  A
C301        N302   1.359       .  A
C301        C865   1.478       .  S
C303        N304   1.355       .  A
C303        N308   1.354       .  A
C303        C774   1.461       .  S
N304        C305   1.354       .  A
C305        N306   1.358       .  A
C305        C645   1.469       .  S
N306        C307   1.359       .  A
C307        N308   1.355       .  A
C307        C665   1.496       .  S
C309        N310   1.354       .  A
C309        N314   1.356       .  A
C309        C625   1.463       .  S
N310        C311   1.354       .  A
C311        N312   1.355       .  A
C311        C854   1.460       .  S
N312        C313   1.356       .  A
C313        N314   1.357       .  A
C313        C614   1.469       .  S
C315        N316   1.355       .  A
C315        N320   1.357       .  A
C315        C814   1.459       .  S
N316        C317   1.353       .  A
C317        N318   1.351       .  A
C317        C594   1.454       .  S
N318        C319   1.352       .  A
C319        N320   1.356       .  A
C319        C565   1.460       .  S
C321        N322   1.357       .  A
C321        N326   1.356       .  A
C321        C894   1.475       .  S
N322        C323   1.358       .  A
C323        N324   1.358       .  A
C323        C525   1.488       .  S
N324        C325   1.360       .  A
C325        N326   1.357       .  A
C325        C545   1.485       .  S
C327        N345   1.351       .  A
C327        C364   1.450       .  S
C327        C605   1.466       .  S
N328        N345   1.324       .  A
N328        N350   1.317       .  A
N328       Co365   2.079       .  S
C329        N354   1.343       .  A
C329        C367   1.467       .  S
C329        H374   1.081       .  S
H330        C371   1.082       .  S
C331        N355   1.336       .  A
C331        C335   1.454       .  S
C331        H360   1.082       .  S
Co332       N350   2.059       .  S
Co332       N340   2.063       .  S
Co332       N372   2.068       .  S
Co332       N348   2.060       .  S
Co332      Cl376   2.431       .  S
N333        C371   1.336       .  A
N333        N340   1.321       .  A
N333       Co334   2.075       .  S
Co334       N337   2.101       .  S
Co334       N354   2.096       .  S
Co334       N341   2.085       .  S
Co334      Cl376   2.456       .  S
C335        N373   1.356       .  A
C335        C514   1.477       .  S
N336        N343   1.319       .  A
N336        N366   1.321       .  A
N336       Co369   2.084       .  S
N337        N355   1.317       .  A
N337        N373   1.326       .  A
N338        C367   1.343       .  A
N338        N348   1.320       .  A
H339        C364   1.082       .  S
N340        N361   1.320       .  A
N341        N359   1.321       .  A
N341        N346   1.325       .  A
C342        N346   1.351       .  A
C342        C370   1.459       .  S
C342        C534   1.479       .  S
N343        C358   1.342       .  A
N343       Co365   2.078       .  S
C344        N372   1.336       .  A
C344        C347   1.457       .  S
C344        H378   1.081       .  S
C347        N368   1.349       .  A
C347        C654   1.474       .  S
N348        N354   1.320       .  A
N349        C375   1.334       .  A
N349        N351   1.317       .  A
N349       Co365   2.064       .  S
N350        C364   1.335       .  A
N351        N379   1.321       .  A
N351       Co369   2.060       .  S
H352        C375   1.082       .  S
H353        C370   1.082       .  S
N355       Co369   2.057       .  S
N356        N368   1.323       .  A
N356        N372   1.318       .  A
N356       Co365   2.077       .  S
C357        N361   1.343       .  A
C357        C371   1.457       .  S
C357        C725   1.460       .  S
C358        C377   1.462       .  S
C358        H362   1.081       .  S
N359        C370   1.340       .  A
N359       Co369   2.089       .  S
C363        N379   1.346       .  A
C363        C375   1.454       .  S
C363        C585   1.459       .  S
Co365      Cl376   2.458       .  S
N366        C377   1.349       .  A
C367        C714   1.479       .  S
Co369      Cl376   2.430       .  S
C377        C485   1.478       .  S
C380        N381   1.356       .  A
C380        N385   1.356       .  A
C380        C474   1.467       .  S
N381        C382   1.357       .  A
C382        N383   1.358       .  A
C382        C825   1.468       .  S
N383        C384   1.357       .  A
C384        N385   1.356       .  A
C384        C505   1.467       .  S
C386        N387   1.361       .  A
C386        N391   1.358       .  A
C386        C914   1.475       .  S
N387        C388   1.359       .  A
C388        N389   1.355       .  A
C388        C454   1.484       .  S
N389        C390   1.354       .  A
C390        N391   1.354       .  A
C390        C494   1.471       .  S
C392        N410   1.352       .  A
C392        C429   1.458       .  S
C392        C745   1.480       .  S
N393        N410   1.325       .  A
N393        N415   1.320       .  A
N393       Co430   2.091   1_655  S
C394        N419   1.337       .  A
C394        C432   1.451       .  S
C394        H439   1.081       .  S
H395        C436   1.082       .  S
C396        N420   1.339       .  A
C396        C400   1.461   1_565  S
C396        H425   1.081       .  S
Co397       N415   2.082   1_455  S
Co397       N405   2.075   1_455  S
Co397       N437   2.075       .  S
Co397       N413   2.074   1_565  S
Co397      Cl441   2.443       .  S
N398        C436   1.336       .  A
N398        N405   1.319   1_545  A
N398       Co399   2.070   1_655  S
Co399       N402   2.079   1_455  S
Co399       N419   2.071       .  S
Co399       N406   2.075       .  S
Co399      Cl441   2.448   1_545  S
C400        N438   1.350       .  A
C400        C554   1.480       .  S
N401        N408   1.319       .  A
N401        N431   1.321       .  A
N401       Co434   2.068   1_655  S
N402        N420   1.318   1_545  A
N402        N438   1.323       .  A
N403        C432   1.347       .  A
N403        N413   1.321       .  A
H404        C429   1.081       .  S
N405        N426   1.322   1_565  A
N406        N424   1.317   1_545  A
N406        N411   1.322       .  A
C407        N411   1.348       .  A
C407        C435   1.459   1_545  S
C407        C574   1.472       .  S
N408        C423   1.340       .  A
N408       Co430   2.086   1_655  S
C409        N437   1.341       .  A
C409        C412   1.459       .  S
C409        H443   1.081       .  S
C412        N433   1.350       .  A
C412        C634   1.474       .  S
N413        N419   1.319       .  A
N414        C440   1.342       .  A
N414        N416   1.320       .  A
N414       Co430   2.084       .  S
N415        C429   1.340       .  A
N416        N444   1.322       .  A
N416       Co434   2.072       .  S
H417        C440   1.081       .  S
H418        C435   1.081       .  S
N420       Co434   2.078   1_655  S
N421        N433   1.322       .  A
N421        N437   1.317       .  A
N421       Co430   2.082       .  S
C422        N426   1.348       .  A
C422        C436   1.456       .  S
C422        C685   1.461       .  S
C423        C442   1.461       .  S
C423        H427   1.081       .  S
N424        C435   1.340       .  A
N424       Co434   2.075       .  S
C428        N444   1.345       .  A
C428        C440   1.458       .  S
C428        C445   1.467       .  S
Co430      Cl441   2.450       .  S
N431        C442   1.346       .  A
C432        C674   1.460       .  S
Co434      Cl441   2.440       .  S
C442        C465   1.464       .  S
C445        C446   1.409       .  A
C445        C450   1.408       .  A
C446        C447   1.404       .  A
C446       Br458   1.930       .  S
C447        C448   1.408       .  A
C447       Br462   1.931       .  S
C448        C451   1.479       .  S
C448        C449   1.410       .  A
C449        C450   1.405       .  A
C449       Br457   1.929       .  S
C450       Br461   1.931       .  S
C451        C452   1.409       .  A
C451        C456   1.404       .  A
C452        C453   1.407       .  A
C452       Br463   1.933       .  S
C453        C454   1.416       .  A
C453       Br459   1.932       .  S
C454        C455   1.418       .  A
C455        C456   1.406       .  A
C455       Br464   1.933       .  S
C456       Br460   1.932       .  S
C465        C466   1.406       .  A
C465        C470   1.409       .  A
C466        C467   1.404       .  A
C466       Br478   1.925       .  S
C467        C468   1.407       .  A
C467       Br482   1.929       .  S
C468        C471   1.474       .  S
C468        C469   1.408       .  A
C469        C470   1.402       .  A
C469       Br477   1.930       .  S
C470       Br481   1.933   1_655  S
C471        C472   1.406       .  A
C471        C476   1.408       .  A
C472        C473   1.402       .  A
C472       Br483   1.931       .  S
C473        C474   1.409       .  A
C473       Br479   1.926       .  S
C474        C475   1.408       .  A
C475        C476   1.406       .  A
C475       Br484   1.929       .  S
C476       Br480   1.929       .  S
C485        C486   1.415       .  A
C485        C490   1.413       .  A
C486        C487   1.408       .  A
C486       Br498   1.931       .  S
C487        C488   1.408       .  A
C487       Br502   1.932       .  S
C488        C491   1.479       .  S
C488        C489   1.405       .  A
C489        C490   1.403       .  A
C489       Br497   1.930       .  S
C490       Br501   1.932       .  S
C491        C492   1.408       .  A
C491        C496   1.409       .  A
C492        C493   1.404       .  A
C492       Br503   1.928       .  S
C493        C494   1.409       .  A
C493       Br499   1.931       .  S
C494        C495   1.410       .  A
C495        C496   1.406       .  A
C495       Br504   1.930       .  S
C496       Br500   1.931       .  S
C505        C506   1.407       .  A
C505        C510   1.408       .  A
C506        C507   1.401       .  A
C506       Br518   1.928       .  S
C507        C508   1.409       .  A
C507       Br522   1.933       .  S
C508        C511   1.478       .  S
C508        C509   1.408       .  A
C509        C510   1.409       .  A
C509       Br517   1.927       .  S
C510       Br521   1.927       .  S
C511        C512   1.406       .  A
C511        C516   1.407       .  A
C512        C513   1.407       .  A
C512       Br523   1.931       .  S
C513        C514   1.418       .  A
C513       Br519   1.933       .  S
C514        C515   1.407       .  A
C515        C516   1.404       .  A
C515       Br524   1.924       .  S
C516       Br520   1.929       .  S
C525        C526   1.415       .  A
C525        C530   1.420       .  A
C526        C527   1.408       .  A
C526       Br538   1.931       .  S
C527        C528   1.407       .  A
C527       Br542   1.930       .  S
C528        C531   1.486       .  S
C528        C529   1.407       .  A
C529        C530   1.409       .  A
C529       Br537   1.932       .  S
C530       Br541   1.934       .  S
C531        C532   1.408       .  A
C531        C536   1.410       .  A
C532        C533   1.409       .  A
C532       Br543   1.929       .  S
C533        C534   1.413       .  A
C533       Br539   1.931       .  S
C534        C535   1.411       .  A
C535        C536   1.407       .  A
C535       Br544   1.931       .  S
C536       Br540   1.932       .  S
C545        C546   1.420       .  A
C545        C550   1.414       .  A
C546        C547   1.407       .  A
C546       Br558   1.936       .  S
C547        C548   1.407       .  A
C547       Br562   1.933       .  S
C548        C551   1.484       .  S
C548        C549   1.408       .  A
C549        C550   1.408       .  A
C549       Br557   1.930       .  S
C550       Br561   1.931       .  S
C551        C552   1.409       .  A
C551        C556   1.407       .  A
C552        C553   1.406       .  A
C552       Br563   1.931       .  S
C553        C554   1.411       .  A
C553       Br559   1.932       .  S
C554        C555   1.417       .  A
C555        C556   1.408       .  A
C555       Br564   1.931       .  S
C556       Br560   1.931       .  S
C565        C566   1.407       .  A
C565        C570   1.406       .  A
C566        C567   1.405       .  A
C566       Br578   1.930       .  S
C567        C568   1.409       .  A
C567       Br582   1.928       .  S
C568        C571   1.475       .  S
C568        C569   1.409       .  A
C569        C570   1.401       .  A
C569       Br577   1.931       .  S
C570       Br581   1.931       .  S
C571        C572   1.406       .  A
C571        C576   1.408       .  A
C572        C573   1.403       .  A
C572       Br583   1.934       .  S
C573        C574   1.413       .  A
C573       Br579   1.929       .  S
C574        C575   1.410       .  A
C575        C576   1.406       .  A
C575       Br584   1.932       .  S
C576       Br580   1.929       .  S
C585        C586   1.407       .  A
C585        C590   1.413       .  A
C586        C587   1.401       .  A
C586       Br598   1.932       .  S
C587        C588   1.406       .  A
C587       Br602   1.928       .  S
C588        C591   1.465       .  S
C588        C589   1.405       .  A
C589        C590   1.399       .  A
C589       Br597   1.933       .  S
C590       Br601   1.933       .  S
C591        C592   1.405       .  A
C591        C596   1.409       .  A
C592        C593   1.401       .  A
C592       Br603   1.927       .  S
C593        C594   1.405       .  A
C593       Br599   1.928       .  S
C594        C595   1.406       .  A
C595        C596   1.399       .  A
C595       Br604   1.930       .  S
C596       Br600   1.933       .  S
C605        C606   1.410       .  A
C605        C610   1.408       .  A
C606        C607   1.403       .  A
C606       Br618   1.931       .  S
C607        C608   1.407       .  A
C607       Br622   1.930       .  S
C608        C611   1.476       .  S
C608        C609   1.408       .  A
C609        C610   1.404       .  A
C609       Br617   1.929       .  S
C610       Br621   1.932       .  S
C611        C612   1.408       .  A
C611        C616   1.408       .  A
C612        C613   1.402       .  A
C612       Br623   1.933       .  S
C613        C614   1.410       .  A
C613       Br619   1.932       .  S
C614        C615   1.410       .  A
C615        C616   1.406       .  A
C615       Br624   1.929       .  S
C616       Br620   1.929       .  S
C625        C626   1.407       .  A
C625        C630   1.407       .  A
C626        C627   1.406       .  A
C626       Br638   1.928       .  S
C627        C628   1.407       .  A
C627       Br642   1.927       .  S
C628        C631   1.476       .  S
C628        C629   1.410       .  A
C629        C630   1.402       .  A
C629       Br637   1.932       .  S
C630       Br641   1.930       .  S
C631        C632   1.406       .  A
C631        C636   1.406       .  A
C632        C633   1.406       .  A
C632       Br643   1.930       .  S
C633        C634   1.415       .  A
C633       Br639   1.929       .  S
C634        C635   1.409       .  A
C635        C636   1.403       .  A
C635       Br644   1.930       .  S
C636       Br640   1.930       .  S
C645        C646   1.408       .  A
C645        C650   1.407       .  A
C646        C647   1.404       .  A
C646       Br658   1.929       .  S
C647        C648   1.411       .  A
C647       Br662   1.933       .  S
C648        C651   1.477       .  S
C648        C649   1.409       .  A
C649        C650   1.403       .  A
C649       Br657   1.931       .  S
C650       Br661   1.928       .  S
C651        C652   1.408       .  A
C651        C656   1.407       .  A
C652        C653   1.404       .  A
C652       Br663   1.932       .  S
C653        C654   1.413       .  A
C653       Br659   1.933       .  S
C654        C655   1.415       .  A
C655        C656   1.403       .  A
C655       Br664   1.934       .  S
C656       Br660   1.933       .  S
C665        C666   1.426       .  A
C665        C670   1.423       .  A
C666        C667   1.406       .  A
C666       Br678   1.936       .  S
C667        C668   1.403       .  A
C667       Br682   1.936       .  S
C668        C671   1.473       .  S
C668        C669   1.400       .  A
C669        C670   1.405       .  A
C669       Br677   1.933       .  S
C670       Br681   1.928       .  S
C671        C672   1.407       .  A
C671        C676   1.409       .  A
C672        C673   1.403       .  A
C672       Br683   1.929   1_545  S
C673        C674   1.410       .  A
C673       Br679   1.930   1_545  S
C674        C675   1.403       .  A
C675        C676   1.401       .  A
C675       Br684   1.929       .  S
C676       Br680   1.929       .  S
C685        C686   1.410       .  A
C685        C690   1.404       .  A
C686        C687   1.402       .  A
C686       Br698   1.933   1_655  S
C687        C688   1.408       .  A
C687       Br702   1.931       .  S
C688        C691   1.476       .  S
C688        C689   1.410       .  A
C689        C690   1.404       .  A
C689       Br697   1.928       .  S
C690       Br701   1.929       .  S
C691        C692   1.407       .  A
C691        C696   1.405       .  A
C692        C693   1.406       .  A
C692       Br703   1.931       .  S
C693        C694   1.413       .  A
C693       Br699   1.931       .  S
C694        C695   1.417       .  A
C695        C696   1.405       .  A
C695       Br704   1.932       .  S
C696       Br700   1.933       .  S
C705        C706   1.412       .  A
C705        C710   1.413       .  A
C706        C707   1.405       .  A
C706       Br718   1.932       .  S
C707        C708   1.408       .  A
C707       Br722   1.932       .  S
C708        C711   1.483       .  S
C708        C709   1.408       .  A
C709        C710   1.410       .  A
C709       Br717   1.929       .  S
C710       Br721   1.928       .  S
C711        C712   1.406       .  A
C711        C716   1.409       .  A
C712        C713   1.407       .  A
C712       Br723   1.931       .  S
C713        C714   1.418       .  A
C713       Br719   1.933       .  S
C714        C715   1.409       .  A
C715        C716   1.406       .  A
C715       Br724   1.930       .  S
C716       Br720   1.929       .  S
C725        C726   1.405       .  A
C725        C730   1.411       .  A
C726        C727   1.398       .  A
C726       Br738   1.928       .  S
C727        C728   1.406       .  A
C727       Br742   1.930       .  S
C728        C731   1.468       .  S
C728        C729   1.407       .  A
C729        C730   1.402       .  A
C729       Br737   1.932       .  S
C730       Br741   1.932       .  S
C731        C732   1.404       .  A
C731        C736   1.404       .  A
C732        C733   1.401       .  A
C732       Br743   1.935       .  S
C733        C734   1.415       .  A
C733       Br739   1.923       .  S
C734        C735   1.416       .  A
C735        C736   1.402       .  A
C735       Br744   1.929       .  S
C736       Br740   1.934       .  S
C745        C746   1.413       .  A
C745        C750   1.411       .  A
C746        C747   1.407       .  A
C746       Br758   1.929       .  S
C747        C748   1.408       .  A
C747       Br762   1.932       .  S
C748        C751   1.481       .  S
C748        C749   1.408       .  A
C749        C750   1.405       .  A
C749       Br757   1.933       .  S
C750       Br761   1.924       .  S
C751        C752   1.410       .  A
C751        C756   1.410       .  A
C752        C753   1.403       .  A
C752       Br763   1.930       .  S
C753        C754   1.407       .  A
C753       Br759   1.926       .  S
C754        C755   1.408       .  A
C755        C756   1.405       .  A
C755       Br764   1.931       .  S
C756       Br760   1.929       .  S
C765        C766   1.409       .  A
C765        C770   1.408   1_545  A
C766        C767   1.402       .  A
C766       Br778   1.929       .  S
C767        C768   1.407       .  A
C767       Br782   1.929       .  S
C768        C771   1.475       .  S
C768        C769   1.408       .  A
C769        C770   1.404   1_545  A
C769       Br777   1.929   1_545  S
C770       Br781   1.928       .  S
C771        C772   1.407       .  A
C771        C776   1.410       .  A
C772        C773   1.404       .  A
C772       Br783   1.929       .  S
C773        C774   1.409       .  A
C773       Br779   1.929       .  S
C774        C775   1.404       .  A
C775        C776   1.402       .  A
C775       Br784   1.930       .  S
C776       Br780   1.929       .  S
C785        C786   1.406       .  A
C785        C790   1.408       .  A
C786        C787   1.402       .  A
C786       Br798   1.930       .  S
C787        C788   1.409       .  A
C787       Br802   1.930       .  S
C788        C791   1.473       .  S
C788        C789   1.409       .  A
C789        C790   1.402       .  A
C789       Br797   1.931       .  S
C790       Br801   1.929       .  S
C791        C792   1.409       .  A
C791        C796   1.410       .  A
C792        C793   1.402       .  A
C792       Br803   1.929       .  S
C793        C794   1.405       .  A
C793       Br799   1.931       .  S
C794        C795   1.406       .  A
C795        C796   1.402       .  A
C795       Br804   1.929       .  S
C796       Br800   1.932       .  S
C805        C806   1.408       .  A
C805        C810   1.407       .  A
C806        C807   1.401       .  A
C806       Br818   1.929       .  S
C807        C808   1.407       .  A
C807       Br822   1.930       .  S
C808        C811   1.471       .  S
C808        C809   1.409       .  A
C809        C810   1.403       .  A
C809       Br817   1.930       .  S
C810       Br821   1.929       .  S
C811        C812   1.408       .  A
C811        C816   1.408       .  A
C812        C813   1.404       .  A
C812       Br823   1.928       .  S
C813        C814   1.406       .  A
C813       Br819   1.929       .  S
C814        C815   1.406       .  A
C815        C816   1.400       .  A
C815       Br824   1.929       .  S
C816       Br820   1.932       .  S
C825        C826   1.411       .  A
C825        C830   1.408       .  A
C826        C827   1.403       .  A
C826       Br838   1.929       .  S
C827        C828   1.405       .  A
C827       Br842   1.931       .  S
C828        C831   1.471       .  S
C828        C829   1.408       .  A
C829        C830   1.404       .  A
C829       Br837   1.931       .  S
C830       Br841   1.928       .  S
C831        C832   1.407       .  A
C831        C836   1.408       .  A
C832        C833   1.400       .  A
C832       Br843   1.928       .  S
C833        C834   1.406       .  A
C833       Br839   1.930   1_655  S
C834        C835   1.407       .  A
C835        C836   1.402       .  A
C835       Br844   1.929       .  S
C836       Br840   1.929       .  S
C845        C846   1.407       .  A
C845        C850   1.408       .  A
C846        C847   1.402       .  A
C846       Br858   1.930       .  S
C847        C848   1.408       .  A
C847       Br862   1.929       .  S
C848        C851   1.469       .  S
C848        C849   1.406       .  A
C849        C850   1.400       .  A
C849       Br857   1.929       .  S
C850       Br861   1.928       .  S
C851        C852   1.406       .  A
C851        C856   1.408       .  A
C852        C853   1.403       .  A
C852       Br863   1.929       .  S
C853        C854   1.408       .  A
C853       Br859   1.928       .  S
C854        C855   1.405       .  A
C855        C856   1.401       .  A
C855       Br864   1.929       .  S
C856       Br860   1.932       .  S
C865        C866   1.410       .  A
C865        C870   1.408       .  A
C866        C867   1.409       .  A
C866       Br878   1.930       .  S
C867        C868   1.410       .  A
C867       Br882   1.929       .  S
C868        C871   1.491       .  S
C868        C869   1.411       .  A
C869        C870   1.411       .  A
C869       Br877   1.927       .  S
C870       Br881   1.928       .  S
C871        C872   1.409       .  A
C871        C876   1.411       .  A
C872        C873   1.409       .  A
C872       Br883   1.928       .  S
C873        C874   1.410       .  A
C873       Br879   1.928   1_655  S
C874        C875   1.411       .  A
C875        C876   1.411       .  A
C875       Br884   1.929       .  S
C876       Br880   1.929       .  S
C885        C886   1.409       .  A
C885        C890   1.406       .  A
C886        C887   1.404       .  A
C886       Br898   1.930       .  S
C887        C888   1.409       .  A
C887       Br902   1.928       .  S
C888        C891   1.478       .  S
C888        C889   1.409       .  A
C889        C890   1.402       .  A
C889       Br897   1.929       .  S
C890       Br901   1.929   1_545  S
C891        C892   1.409       .  A
C891        C896   1.405       .  A
C892        C893   1.407       .  A
C892       Br903   1.931       .  S
C893        C894   1.411       .  A
C893       Br899   1.929       .  S
C894        C895   1.415       .  A
C895        C896   1.405       .  A
C895       Br904   1.933       .  S
C896       Br900   1.931       .  S
C905        C906   1.408       .  A
C905        C910   1.409       .  A
C906        C907   1.403       .  A
C906       Br918   1.928       .  S
C907        C908   1.408       .  A
C907       Br922   1.930       .  S
C908        C911   1.476       .  S
C908        C909   1.408       .  A
C909        C910   1.404       .  A
C909       Br917   1.928       .  S
C910       Br921   1.930       .  S
C911        C912   1.406       .  A
C911        C916   1.407       .  A
C912        C913   1.404       .  A
C912       Br923   1.933       .  S
C913        C914   1.414       .  A
C913       Br919   1.932       .  S
C914        C915   1.412       .  A
C915        C916   1.406       .  A
C915       Br924   1.931       .  S
C916       Br920   1.930       .  S
C925        C926   1.408       .  A
C925        C930   1.408       .  A
C926        C927   1.403       .  A
C926       Br938   1.930   1_545  S
C927        C928   1.409       .  A
C927       Br942   1.930       .  S
C928        C931   1.476       .  S
C928        C929   1.408       .  A
C929        C930   1.403       .  A
C929       Br937   1.929       .  S
C930       Br941   1.929       .  S
C931        C932   1.407       .  A
C931        C936   1.408       .  A
C932        C933   1.403       .  A
C932       Br943   1.930       .  S
C933        C934   1.408       .  A
C933       Br939   1.927       .  S
C934        C935   1.408       .  A
C935        C936   1.406       .  A
C935       Br944   1.928       .  S
C936       Br940   1.930       .  S
C945        C946   1.411       .  A
C945        C950   1.407       .  A
C946        C947   1.402       .  A
C946       Br958   1.932       .  S
C947        C948   1.408       .  A
C947       Br962   1.932       .  S
C948        C951   1.481       .  S
C948        C949   1.411       .  A
C949        C950   1.408       .  A
C949       Br957   1.930       .  S
C950       Br961   1.926       .  S
C951        C952   1.410       .  A
C951        C956   1.411       .  A
C952        C953   1.406       .  A
C952       Br963   1.930       .  S
C953        C954   1.407       .  A
C953       Br959   1.929       .  S
C954        C955   1.406       .  A
C955        C956   1.405       .  A
C955       Br964   1.929       .  S
C956       Br960   1.931       .  S
C965        C966   1.407       .  A
C965        C970   1.407       .  A
C966        C967   1.400       .  A
C966       Br978   1.930       .  S
C967        C968   1.406       .  A
C967       Br982   1.930       .  S
C968        C971   1.468       .  S
C968        C969   1.408       .  A
C969        C970   1.401       .  A
C969       Br977   1.929       .  S
C970       Br981   1.930       .  S
C971        C972   1.404       .  A
C971        C976   1.407       .  A
C972        C973   1.400       .  A
C972       Br983   1.932       .  S
C973        C974   1.408       .  A
C973       Br979   1.924       .  S
C974        C975   1.409       .  A
C975        C976   1.403       .  A
C975       Br984   1.928       .  S
C976       Br980   1.930       .  S
C985        C986   1.412       .  A
C985        C990   1.413       .  A
C986        C987   1.403       .  A
C986       Br998   1.932       .  S
C987        C988   1.407       .  A
C987      Br1002   1.931       .  S
C988        C991   1.477       .  S
C988        C989   1.407       .  A
C989        C990   1.405       .  A
C989       Br997   1.931       .  S
C990      Br1001   1.928       .  S
C991        C992   1.408       .  A
C991        C996   1.407       .  A
C992        C993   1.407       .  A
C992      Br1003   1.929       .  S
C993        C994   1.411       .  A
C993       Br999   1.930       .  S
C994        C995   1.414       .  A
C995        C996   1.403       .  A
C995      Br1004   1.930       .  S
C996      Br1000   1.934       .  S
C1005      C1006   1.409       .  A
C1005      C1010   1.408       .  A
C1006      C1007   1.405       .  A
C1006     Br1018   1.930       .  S
C1007      C1008   1.409       .  A
C1007     Br1022   1.929       .  S
C1008      C1011   1.482       .  S
C1008      C1009   1.410       .  A
C1009      C1010   1.406       .  A
C1009     Br1017   1.928       .  S
C1010     Br1021   1.929   1_545  S
C1011      C1012   1.410       .  A
C1011      C1016   1.409       .  A
C1012      C1013   1.406       .  A
C1012     Br1023   1.932       .  S
C1013      C1014   1.408       .  A
C1013     Br1019   1.928       .  S
C1014      C1015   1.408       .  A
C1015      C1016   1.408       .  A
C1015     Br1024   1.929       .  S
C1016     Br1020   1.928       .  S
C1025      C1026   1.410       .  A
C1025      C1030   1.410       .  A
C1026      C1027   1.409       .  A
C1026     Br1038   1.929       .  S
C1027      C1028   1.410       .  A
C1027     Br1042   1.928       .  S
C1028      C1031   1.484       .  S
C1028      C1029   1.409       .  A
C1029      C1030   1.405       .  A
C1029     Br1037   1.931       .  S
C1030     Br1041   1.929       .  S
C1031      C1032   1.408       .  A
C1031      C1036   1.410       .  A
C1032      C1033   1.405       .  A
C1032     Br1043   1.932       .  S
C1033      C1034   1.411       .  A
C1033     Br1039   1.932       .  S
C1034      C1035   1.409       .  A
C1035      C1036   1.409       .  A
C1035     Br1044   1.926       .  S
C1036     Br1040   1.929       .  S
C1045      C1046   1.409       .  A
C1045      C1050   1.410       .  A
C1046      C1047   1.409       .  A
C1046     Br1058   1.927       .  S
C1047      C1048   1.411       .  A
C1047     Br1062   1.931       .  S
C1048      C1051   1.492       .  S
C1048      C1049   1.411       .  A
C1049      C1050   1.411       .  A
C1049     Br1057   1.929       .  S
C1050     Br1061   1.928       .  S
C1051      C1052   1.411       .  A
C1051      C1056   1.413       .  A
C1052      C1053   1.409       .  A
C1052     Br1063   1.929       .  S
C1053      C1054   1.409       .  A
C1053     Br1059   1.928       .  S
C1054      C1055   1.409       .  A
C1055      C1056   1.409       .  A
C1055     Br1064   1.930       .  S
C1056     Br1060   1.929       .  S
C1065      C1066   1.417       .  A
C1065      C1070   1.416       .  A
C1066      C1067   1.407       .  A
C1066     Br1078   1.935       .  S
C1067      C1068   1.407       .  A
C1067     Br1082   1.930       .  S
C1068      C1071   1.491       .  S
C1068      C1069   1.410       .  A
C1069      C1070   1.412       .  A
C1069     Br1077   1.929       .  S
C1070     Br1081   1.930       .  S
C1071      C1072   1.411       .  A
C1071      C1076   1.407       .  A
C1072      C1073   1.413       .  A
C1072     Br1083   1.930       .  S
C1073      C1074   1.413       .  A
C1073     Br1079   1.928       .  S
C1074      C1075   1.415       .  A
C1075      C1076   1.408       .  A
C1075     Br1084   1.932       .  S
C1076     Br1080   1.930       .  S
C1085      C1086   1.406       .  A
C1085      C1090   1.411       .  A
C1086      C1087   1.405       .  A
C1086     Br1098   1.925       .  S
C1087      C1088   1.408       .  A
C1087     Br1102   1.929       .  S
C1088      C1091   1.478       .  S
C1088      C1089   1.407       .  A
C1089      C1090   1.406       .  A
C1089     Br1097   1.930       .  S
C1090     Br1101   1.929   1_545  S
C1091      C1092   1.406       .  A
C1091      C1096   1.410       .  A
C1092      C1093   1.405       .  A
C1092     Br1103   1.928       .  S
C1093      C1094   1.409       .  A
C1093     Br1099   1.927       .  S
C1094      C1095   1.409       .  A
C1095      C1096   1.404       .  A
C1095     Br1104   1.931       .  S
C1096     Br1100   1.932       .  S
C1105      C1106   1.415       .  A
C1105      C1110   1.413       .  A
C1106      C1107   1.405       .  A
C1106     Br1118   1.932       .  S
C1107      C1108   1.407       .  A
C1107     Br1122   1.932       .  S
C1108      C1111   1.484       .  S
C1108      C1109   1.410       .  A
C1109      C1110   1.409       .  A
C1109     Br1117   1.931       .  S
C1110     Br1121   1.931       .  S
C1111      C1112   1.411       .  A
C1111      C1116   1.409       .  A
C1112      C1113   1.409       .  A
C1112     Br1123   1.928       .  S
C1113      C1114   1.409       .  A
C1113     Br1119   1.930       .  S
C1114      C1115   1.409       .  A
C1115      C1116   1.404       .  A
C1115     Br1124   1.925       .  S
C1116     Br1120   1.933       .  S
C1125      C1126   1.407       .  A
C1125      C1130   1.412       .  A
C1126      C1127   1.406       .  A
C1126     Br1138   1.929       .  S
C1127      C1128   1.409       .  A
C1127     Br1142   1.929       .  S
C1128      C1131   1.477       .  S
C1128      C1129   1.406       .  A
C1129      C1130   1.404       .  A
C1129     Br1137   1.932       .  S
C1130     Br1141   1.927   1_545  S
C1131      C1132   1.408       .  A
C1131      C1136   1.408       .  A
C1132      C1133   1.406       .  A
C1132     Br1143   1.928       .  S
C1133      C1134   1.408       .  A
C1133     Br1139   1.929       .  S
C1134      C1135   1.407       .  A
C1135      C1136   1.403       .  A
C1135     Br1144   1.928       .  S
C1136     Br1140   1.932       .  S
C1145      C1146   1.411       .  A
C1145      C1150   1.414       .  A
C1146      C1147   1.405       .  A
C1146     Br1158   1.933       .  S
C1147      C1148   1.408       .  A
C1147     Br1162   1.929       .  S
C1148      C1151   1.480       .  S
C1148      C1149   1.406       .  A
C1149      C1150   1.405       .  A
C1149     Br1157   1.931       .  S
C1150     Br1161   1.931       .  S
C1151      C1152   1.406       .  A
C1151      C1156   1.407       .  A
C1152      C1153   1.408       .  A
C1152     Br1163   1.931       .  S
C1153      C1154   1.416       .  A
C1153     Br1159   1.931       .  S
C1154      C1155   1.413       .  A
C1155      C1156   1.406       .  A
C1155     Br1164   1.927       .  S
C1156     Br1160   1.932       .  S
C1165      C1166   1.408       .  A
C1165      C1170   1.407       .  A
C1166      C1167   1.404       .  A
C1166     Br1178   1.929       .  S
C1167      C1168   1.408       .  A
C1167     Br1182   1.930       .  S
C1168      C1171   1.473       .  S
C1168      C1169   1.408       .  A
C1169      C1170   1.402       .  A
C1169     Br1177   1.930       .  S
C1170     Br1181   1.930       .  S
C1171      C1172   1.409       .  A
C1171      C1176   1.406       .  A
C1172      C1173   1.404       .  A
C1172     Br1183   1.930       .  S
C1173      C1174   1.408       .  A
C1173     Br1179   1.928       .  S
C1174      C1175   1.408       .  A
C1175      C1176   1.402       .  A
C1175     Br1184   1.929   1_655  S
C1176     Br1180   1.929       .  S
C1185      C1186   1.420       .  A
C1185      C1190   1.421       .  A
C1186      C1187   1.407       .  A
C1186     Br1198   1.934       .  S
C1187      C1188   1.405       .  A
C1187     Br1202   1.934       .  S
C1188      C1191   1.477       .  S
C1188      C1189   1.404       .  A
C1189      C1190   1.404       .  A
C1189     Br1197   1.932       .  S
C1190     Br1201   1.937       .  S
C1191      C1192   1.409       .  A
C1191      C1196   1.408       .  A
C1192      C1193   1.405       .  A
C1192     Br1203   1.930       .  S
C1193      C1194   1.407       .  A
C1193     Br1199   1.929       .  S
C1194      C1195   1.408       .  A
C1195      C1196   1.403       .  A
C1195     Br1204   1.931   1_655  S
C1196     Br1200   1.930       .  S
C1205      C1206   1.417       .  A
C1205      C1210   1.415       .  A
C1206      C1207   1.406       .  A
C1206     Br1218   1.933       .  S
C1207      C1208   1.406       .  A
C1207     Br1222   1.932       .  S
C1208      C1211   1.476       .  S
C1208      C1209   1.406       .  A
C1209      C1210   1.404       .  A
C1209     Br1217   1.932       .  S
C1210     Br1221   1.933       .  S
C1211      C1212   1.408       .  A
C1211      C1216   1.407       .  A
C1212      C1213   1.403       .  A
C1212     Br1223   1.928       .  S
C1213      C1214   1.409       .  A
C1213     Br1219   1.931       .  S
C1214      C1215   1.410       .  A
C1215      C1216   1.403       .  A
C1215     Br1224   1.930       .  S
C1216     Br1220   1.931       .  S
C1225      C1226   1.412       .  A
C1225      C1230   1.409       .  A
C1226      C1227   1.405       .  A
C1226     Br1238   1.930       .  S
C1227      C1228   1.407       .  A
C1227     Br1242   1.930       .  S
C1228      C1231   1.473       .  S
C1228      C1229   1.406       .  A
C1229      C1230   1.401       .  A
C1229     Br1237   1.930       .  S
C1230     Br1241   1.929       .  S
C1231      C1232   1.405       .  A
C1231      C1236   1.408       .  A
C1232      C1233   1.402       .  A
C1232     Br1243   1.932       .  S
C1233      C1234   1.411       .  A
C1233     Br1239   1.932       .  S
C1234      C1235   1.410       .  A
C1235      C1236   1.405       .  A
C1235     Br1244   1.931       .  S
C1236     Br1240   1.930       .  S
C1245      C1246   1.413       .  A
C1245      C1250   1.414       .  A
C1246      C1247   1.405       .  A
C1246     Br1258   1.932       .  S
C1247      C1248   1.407       .  A
C1247     Br1262   1.930       .  S
C1248      C1251   1.477       .  S
C1248      C1249   1.406       .  A
C1249      C1250   1.405       .  A
C1249     Br1257   1.931       .  S
C1250     Br1261   1.932       .  S
C1251      C1252   1.409       .  A
C1251      C1256   1.408       .  A
C1252      C1253   1.406       .  A
C1252     Br1263   1.928       .  S
C1253      C1254   1.406       .  A
C1253     Br1259   1.928       .  S
C1254      C1255   1.410       .  A
C1255      C1256   1.403       .  A
C1255     Br1264   1.932       .  S
C1256     Br1260   1.931       .  S
C1265      C1266   1.407       .  A
C1265      C1270   1.407       .  A
C1266      C1267   1.402       .  A
C1266     Br1278   1.931       .  S
C1267      C1268   1.410       .  A
C1267     Br1282   1.932       .  S
C1268      C1271   1.472       .  S
C1268      C1269   1.406       .  A
C1269      C1270   1.403       .  A
C1269     Br1277   1.928       .  S
C1270     Br1281   1.928       .  S
C1271      C1272   1.406       .  A
C1271      C1276   1.405       .  A
C1272      C1273   1.401       .  A
C1272     Br1283   1.932       .  S
C1273      C1274   1.409       .  A
C1273     Br1279   1.933       .  S
C1274      C1275   1.416       .  A
C1275      C1276   1.405       .  A
C1275     Br1284   1.932       .  S
C1276     Br1280   1.931       .  S
C1285      C1286   1.408       .  A
C1285      C1290   1.409       .  A
C1286      C1287   1.405       .  A
C1286     Br1298   1.928       .  S
C1287      C1288   1.408       .  A
C1287     Br1302   1.928       .  S
C1288      C1291   1.479       .  S
C1288      C1289   1.408       .  A
C1289      C1290   1.405       .  A
C1289     Br1297   1.929       .  S
C1290     Br1301   1.929       .  S
C1291      C1292   1.408       .  A
C1291      C1296   1.410       .  A
C1292      C1293   1.406       .  A
C1292     Br1303   1.928       .  S
C1293      C1294   1.410       .  A
C1293     Br1299   1.930       .  S
C1294      C1295   1.407       .  A
C1295      C1296   1.404       .  A
C1295     Br1304   1.930       .  S
C1296     Br1300   1.930       .  S
C1305      C1306   1.407       .  A
C1305      C1310   1.409       .  A
C1306      C1307   1.399       .  A
C1306     Br1318   1.931       .  S
C1307      C1308   1.408       .  A
C1307     Br1322   1.933       .  S
C1308      C1311   1.478       .  S
C1308      C1309   1.409       .  A
C1309      C1310   1.410       .  A
C1309     Br1317   1.927       .  S
C1310     Br1321   1.927       .  S
C1311      C1312   1.408       .  A
C1311      C1316   1.408       .  A
C1312      C1313   1.404       .  A
C1312     Br1323   1.928       .  S
C1313      C1314   1.408       .  A
C1313     Br1319   1.931       .  S
C1314      C1315   1.412       .  A
C1315      C1316   1.405       .  A
C1315     Br1324   1.932       .  S
C1316     Br1320   1.930       .  S
C1325      C1326   1.411       .  A
C1325      C1330   1.411       .  A
C1326      C1327   1.409       .  A
C1326     Br1338   1.929       .  S
C1327      C1328   1.410       .  A
C1327     Br1342   1.930       .  S
C1328      C1331   1.485       .  S
C1328      C1329   1.410       .  A
C1329      C1330   1.406       .  A
C1329     Br1337   1.932       .  S
C1330     Br1341   1.931       .  S
C1331      C1332   1.411       .  A
C1331      C1336   1.409       .  A
C1332      C1333   1.407       .  A
C1332     Br1343   1.929       .  S
C1333      C1334   1.407       .  A
C1333     Br1339   1.927       .  S
C1334      C1335   1.411       .  A
C1335      C1336   1.406       .  A
C1335     Br1344   1.933       .  S
C1336     Br1340   1.930       .  S
C1345      C1346   1.411       .  A
C1345      C1350   1.409       .  A
C1346      C1347   1.409       .  A
C1346     Br1358   1.927       .  S
C1347      C1348   1.410       .  A
C1347     Br1362   1.932       .  S
C1348      C1351   1.481       .  S
C1348      C1349   1.406       .  A
C1349      C1350   1.405       .  A
C1349     Br1357   1.928       .  S
C1350     Br1361   1.927       .  S
C1351      C1352   1.408       .  A
C1351      C1356   1.410       .  A
C1352      C1353   1.403       .  A
C1352     Br1363   1.929       .  S
C1353      C1354   1.410       .  A
C1353     Br1359   1.931       .  S
C1354      C1355   1.409       .  A
C1355      C1356   1.407       .  A
C1355     Br1364   1.929   1_655  S
C1356     Br1360   1.928       .  S
C1365      C1366   1.414       .  A
C1365      C1370   1.411       .  A
C1366      C1367   1.409       .  A
C1366     Br1378   1.931       .  S
C1367      C1368   1.408       .  A
C1367     Br1382   1.929       .  S
C1368      C1371   1.494       .  S
C1368      C1369   1.412       .  A
C1369      C1370   1.413       .  A
C1369     Br1377   1.929       .  S
C1370     Br1381   1.928       .  S
C1371      C1372   1.410       .  A
C1371      C1376   1.408       .  A
C1372      C1373   1.412       .  A
C1372     Br1383   1.930       .  S
C1373      C1374   1.416       .  A
C1373     Br1379   1.928       .  S
C1374      C1375   1.417       .  A
C1375      C1376   1.411       .  A
C1375     Br1384   1.932       .  S
C1376     Br1380   1.929       .  S
C1385      C1386   1.415       .  A
C1385      C1390   1.413       .  A
C1386      C1387   1.410       .  A
C1386     Br1398   1.927       .  S
C1387      C1388   1.407       .  A
C1387     Br1402   1.930       .  S
C1388      C1391   1.486       .  S
C1388      C1389   1.408       .  A
C1389      C1390   1.407       .  A
C1389     Br1397   1.931       .  S
C1390     Br1401   1.929       .  S
C1391      C1392   1.409       .  A
C1391      C1396   1.408       .  A
C1392      C1393   1.408       .  A
C1392     Br1403   1.931       .  S
C1393      C1394   1.414       .  A
C1393     Br1399   1.929       .  S
C1394      C1395   1.414       .  A
C1395      C1396   1.407       .  A
C1395     Br1404   1.932       .  S
C1396     Br1400   1.928       .  S
