geometry optimzed in LAMMPS
_audit_creation_date              2020-12-01 
_audit_creation_method            'lammps2cif' 
_symmetry_space_group_name_H-M    'P1' 
_symmetry_Int_Tables_number       1 
_symmetry_cell_setting            triclinic 
loop_ 
_symmetry_equiv_pos_as_xyz 
  x,y,z 
_cell_length_a                    37.72940853 
_cell_length_b                    37.95891355154235 
_cell_length_c                    62.046248959997364 
_cell_angle_alpha                 89.8544550176584 
_cell_angle_beta                  90.07036859514224 
_cell_angle_gamma                 90.04188251545885 
loop_ 
_atom_site_label 
_atom_site_type_symbol 
_atom_site_fract_x 
_atom_site_fract_y 
_atom_site_fract_z 
_atom_site_charge 
C1          C  0.43897371  0.31517253  0.35459523     0.03500
C2          C  0.45432515  0.34280759  0.34286141    -0.12600
C3          C  0.44018965  0.35343969  0.32297883     0.01000
C4          C  0.41092072  0.33553989  0.31452258    -0.11200
C5          C  0.39526554  0.30762273  0.32593957     0.03500
C6          C  0.40909056  0.29784524  0.34615691    -0.10600
H7          H  0.47711743  0.35639792  0.34950441     0.09100
H8          H  0.40016076  0.34343186  0.29906774     0.06600
H9          H  0.39618416  0.27751625  0.35555515     0.06500
C10         C  0.39378542  0.35236772  0.17633674     0.03500
C11         C  0.42135028  0.37177082  0.18595278    -0.12600
C12         C  0.42976200  0.36657380  0.20778738     0.01000
C13         C  0.41107176  0.34132231  0.21978275    -0.11200
C14         C  0.38464680  0.32075786  0.21012737     0.03500
C15         C  0.37627716  0.32619702  0.18834218    -0.10600
H16         H  0.43396610  0.39289855  0.17701807     0.09100
H17         H  0.41652974  0.33828618  0.23685281     0.06600
H18         H  0.35432018  0.31201212  0.18114538     0.06500
C19         C  0.16044729  0.34867179  0.36229583     0.03500
C20         C  0.18422742  0.32736625  0.35050769    -0.12600
C21         C  0.17928666  0.32096511  0.32847562     0.01000
C22         C  0.15299831  0.33941855  0.31726634    -0.11200
C23         C  0.12952823  0.36151234  0.32829761     0.03500
C24         C  0.13187842  0.36414132  0.35086043    -0.10600
H25         H  0.20793100  0.31702044  0.35794577     0.09100
H26         H  0.15089145  0.33671066  0.29991427     0.06600
H27         H  0.11257616  0.38018764  0.35910113     0.06500
C28         C  0.43470718  0.12225619  0.18143086     0.03500
C29         C  0.45300045  0.09500686  0.19181659    -0.12600
C30         C  0.44214239  0.08291213  0.21218291     0.01000
C31         C  0.41322576  0.09922257  0.22243339    -0.11200
C32         C  0.39545558  0.12741592  0.21244761     0.03500
C33         C  0.40632665  0.13853592  0.19188593    -0.10600
H34         H  0.47525316  0.08294911  0.18369405     0.09100
H35         H  0.40481011  0.09025191  0.23821693     0.06600
H36         H  0.39253393  0.15963650  0.18366617     0.06500
C37         C  0.45571746  0.38383423  0.31158420     0.42800
N38         N  0.98875826  0.42847790  0.30538169     0.01700
C39         C  0.99265632  0.03517553  0.21492296    -0.06100
H40         H  0.00158499  0.40237425  0.19728922     0.07200
C41         C  0.11900253  0.40245571  0.24341748    -0.06500
Co42       Co  0.46708978  0.46844392  0.26594713     0.74200
N43         N  0.99430937  0.43143088  0.22692395    -0.25700
Co44       Co  0.03509845  0.46860967  0.22858043     0.74100
C45         C  0.10778857  0.38604747  0.22326299     0.42900
N46         N  0.09251167  0.42728016  0.29422294     0.01400
N47         N  0.07343604  0.42936567  0.23023918     0.01500
N48         N  0.44835389  0.03447426  0.23951883    -0.46500
H49         H  0.42123946  0.39532335  0.28156122     0.07200
N50         N  0.46908841  0.43096611  0.24162892     0.01700
N51         N  0.07557499  0.00595800  0.23078976     0.01500
C52         C  0.11270355  0.04708280  0.22361120     0.43100
N53         N  0.06706505  0.42776804  0.30875886    -0.25100
C54         C  0.44223597  0.03131788  0.29363991    -0.06000
N55         N  0.98379324  0.40210559  0.31895854    -0.46200
N56         N  0.08389104  0.02993492  0.21607834    -0.46500
C57         C  0.45186390  0.04620816  0.31443084     0.42900
N58         N  0.47071839  0.00800961  0.24254740     0.01700
N59         N  0.06760192  0.00427845  0.30925308    -0.25100
N60         N  0.46551621  0.42894019  0.28946820    -0.25600
N61         N  0.09359525  0.00449837  0.29503652     0.01400
H62         H  0.05614686  0.03619076  0.33707403     0.07300
H63         H  0.14516481  0.03554522  0.25423714     0.07300
N64         N  0.99674731  0.00785353  0.22835958    -0.25700
N65         N  0.09630794  0.42894167  0.24636165    -0.25300
N66         N  0.98842136  0.00499638  0.30660887     0.01700
C67         C  0.45353156  0.39102850  0.21919143     0.43100
C68         C  0.07325711  0.40218189  0.32327381    -0.06600
N69         N  0.09804328  0.00550663  0.24710883    -0.25300
H70         H  0.14119143  0.39648047  0.25383435     0.07300
N71         N  0.44422825  0.40732426  0.23759032    -0.46500
H72         H  0.05763795  0.39706625  0.33755134     0.07300
C73         C  0.10585077  0.04705449  0.31643993     0.43000
C74         C  0.44332273  0.40158927  0.29199658    -0.06000
Co75       Co  0.02784928  0.46645193  0.30794518     0.73800
N76         N  0.11631172  0.40238992  0.29800579    -0.46200
C77         C  0.46056023  0.05285208  0.22238757     0.43200
N78         N  0.98031612  0.02817549  0.32179204    -0.46200
Co79       Co  0.09581473  0.46657248  0.27071584     0.73900
C80         C  0.12228982  0.03084282  0.24411932    -0.06600
C81         C  0.98656668  0.40724706  0.21181174    -0.06100
N82         N  0.46600479  0.00582265  0.29028041    -0.25600
N83         N  0.07949918  0.40425810  0.21589319    -0.46400
H84         H  0.00986138  0.04138882  0.20152114     0.07200
C85         C  0.07301411  0.03020290  0.32348432    -0.06500
Cl86       Cl  0.03147444  0.46755416  0.26828087    -0.49500
C87         C  0.10579710  0.38506605  0.31594104     0.43000
H88         H  0.41948956  0.03686650  0.28356580     0.07200
N89         N  0.11701340  0.02981851  0.29868011    -0.46200
C90         C  0.13513624  0.32083404  0.18001075     0.03500
C91         C  0.11642846  0.34756344  0.19077877    -0.12600
C92         C  0.12573475  0.35700758  0.21189566     0.01000
C93         C  0.15321456  0.33896894  0.22228297    -0.11200
C94         C  0.17207481  0.31232119  0.21187064     0.03500
C95         C  0.16281657  0.30313216  0.19070414    -0.10600
H96         H  0.09486267  0.36099478  0.18265142     0.09100
H97         H  0.15986245  0.34555055  0.23871020     0.06600
H98         H  0.17721317  0.28248980  0.18245311     0.06500
C99         C  0.39313762  0.07691141  0.35980439     0.03500
C100        C  0.42069755  0.05974319  0.34883578    -0.12600
C101        C  0.42866000  0.06881324  0.32747985     0.01000
C102        C  0.40965055  0.09586851  0.31736194    -0.11200
C103        C  0.38311967  0.11429994  0.32838986     0.03500
C104        C  0.37560214  0.10544841  0.34988795    -0.10600
H105        H  0.43360285  0.03722572  0.35621468     0.09100
H106        H  0.41453604  0.10163167  0.30049620     0.06600
H107        H  0.35377700  0.11816963  0.35811593     0.06500
C108        C  0.12902174  0.12033801  0.35564151     0.03500
C109        C  0.15200641  0.14052994  0.34260307    -0.12600
C110        C  0.16422712  0.12755279  0.32274479     0.01000
C111        C  0.14897517  0.09684634  0.31426005    -0.11200
C112        C  0.12353035  0.07806254  0.32599315     0.03500
C113        C  0.11514627  0.08886716  0.34695589    -0.10600
H114        H  0.16144676  0.16584796  0.34813397     0.09100
H115        H  0.15678300  0.08746386  0.29851572     0.06600
H116        H  0.09811044  0.07217069  0.35654532     0.06500
C117        C  0.16770667  0.08119628  0.17734948     0.03500
C118        C  0.18582412  0.10921773  0.18718337    -0.12600
C119        C  0.17983897  0.11695394  0.20896385     0.01000
C120        C  0.15510082  0.09702582  0.22066814    -0.11200
C121        C  0.13559470  0.07024968  0.21064061     0.03500
C122        C  0.14164966  0.06272107  0.18884703    -0.10600
H123        H  0.20682452  0.12260003  0.17850738     0.09100
H124        H  0.15162917  0.10183508  0.23775683     0.06600
H125        H  0.12850503  0.04045767  0.18139153     0.06500
C126        C  0.36252373  0.29743478  0.22355265     0.42800
N127        N  0.32136638  0.26052113  0.23134082     0.01700
C128        C  0.21869591  0.26395605  0.32443033    -0.06100
H129        H  0.35193452  0.24117613  0.33792722     0.07200
C130        C  0.34406767  0.12827512  0.29510139    -0.06500
Co131      Co  0.28251980  0.28177549  0.27113807     0.74200
N132        N  0.31970477  0.25290166  0.31005832    -0.25700
Co133      Co  0.28023681  0.21466839  0.30907443     0.74100
C134        C  0.35920998  0.13733527  0.31592472     0.42900
N135        N  0.32140335  0.15638554  0.24385351     0.01400
N136        N  0.31797179  0.17417081  0.30822468     0.01500
N137        N  0.22020342  0.30584020  0.29843001    -0.46500
H138        H  0.35179685  0.32988117  0.25411141     0.07200
N139        N  0.32056586  0.27840442  0.29554527     0.01700
N140        N  0.24046353  0.17676425  0.30639036     0.01500
C141        C  0.19426913  0.14478329  0.31155086     0.43100
N142        N  0.32137602  0.18224499  0.22959051    -0.25100
C143        C  0.21833883  0.30616676  0.24339749    -0.06000
N144        N  0.34492208  0.26878330  0.21631149    -0.46200
N145        N  0.21303377  0.17224043  0.31943595    -0.46500
C146        C  0.20160959  0.29489832  0.22329144     0.42900
N147        N  0.24334713  0.28039576  0.29463027     0.01700
N148        N  0.24466835  0.18126524  0.22811227    -0.25100
N149        N  0.32155390  0.28289171  0.24756882    -0.25600
N150        N  0.24386080  0.15637361  0.24296596     0.01400
H151        H  0.21567945  0.18834377  0.19830667     0.07300
H152        H  0.20699120  0.11049669  0.28187063     0.07300
N153        N  0.24301589  0.25550363  0.30952118    -0.25700
N154        N  0.31865349  0.15216305  0.29181064    -0.25300
N155        N  0.24438377  0.26000455  0.23078978     0.01700
C156        C  0.36415356  0.28962752  0.31662869     0.43100
C157        C  0.34822188  0.17772921  0.21589967    -0.06600
N158        N  0.24120572  0.15361690  0.29054392    -0.25300
H159        H  0.34953806  0.10589871  0.28487078     0.07300
N160        N  0.34673984  0.30090749  0.29889288    -0.46500
H161        H  0.35422817  0.19480370  0.20241649     0.07300
C162        C  0.20346489  0.14114487  0.22060476     0.43000
C163        C  0.34697587  0.30692204  0.24423545    -0.06000
Co164      Co  0.28288359  0.22106496  0.22952264     0.73800
N165        N  0.34746887  0.13355736  0.24052384    -0.46200
C166        C  0.20343757  0.29717272  0.31684821     0.43200
N167        N  0.21928560  0.26622240  0.21631458    -0.46200
Co168      Co  0.28138518  0.15391592  0.26731420     0.73900
C169        C  0.21311342  0.13223023  0.29246743    -0.06600
C170        C  0.34626384  0.25773403  0.32414333    -0.06100
N171        N  0.24450382  0.28307626  0.24668174    -0.25600
N172        N  0.34137022  0.16570450  0.32340146    -0.46400
H173        H  0.21352468  0.24954735  0.33915676     0.07200
C174        C  0.22024503  0.17366640  0.21300941    -0.06500
Cl175      Cl  0.28176036  0.21787264  0.26927042    -0.49500
C176        C  0.36552499  0.14545466  0.22311030     0.43000
H177        H  0.21268814  0.32855563  0.25355771     0.07200
N178        N  0.21980459  0.13190644  0.23905184    -0.46200
C179        C  0.26566542  0.45228782  0.49850119     0.02700
C180        C  0.29675016  0.47371680  0.49789498     0.02600
C181        C  0.31119413  0.48612612  0.51737738    -0.17900
C182        C  0.29640438  0.47710370  0.53728588     0.02700
C183        C  0.26638739  0.45508520  0.53799431     0.02600
C184        C  0.25095199  0.44371052  0.51871256    -0.17900
H185        H  0.22730881  0.42749560  0.51955245     0.04700
H186        H  0.33423596  0.00324274  0.51704998     0.04700
C187        C  0.01731354  0.21143465  0.03703307     0.02700
C188        C  0.04450569  0.23701503  0.03642419     0.02600
C189        C  0.05619603  0.24987614  0.01651403    -0.17900
C190        C  0.04193040  0.23698332  0.99725218     0.02700
C191        C  0.01509523  0.21114384  0.99779556     0.02600
C192        C  0.50296287  0.19853953  0.01771773    -0.17900
H193        H  0.48231476  0.17867453  0.01820879     0.04700
H194        H  0.07673384  0.26986230  0.01599827     0.04700
C195        C  0.02936626  0.24487544  0.50084203     0.02700
C196        C  0.04813378  0.21237869  0.50121088     0.02600
C197        C  0.05721290  0.19739721  0.52122007    -0.17900
C198        C  0.04596300  0.21250946  0.54066324     0.02700
C199        C  0.02521757  0.24341706  0.54011246     0.02600
C200        C  0.01783484  0.25962816  0.52033471    -0.17900
H201        H  0.50212514  0.28353086  0.52007858     0.04700
H202        H  0.07259580  0.17330348  0.52171750     0.04700
C203        C  0.28424251  0.44752565  0.03963150     0.02700
C204        C  0.25779034  0.47382060  0.04005217     0.02600
C205        C  0.24389819  0.48690882  0.02068484    -0.17900
C206        C  0.25619544  0.47477530  0.00075121     0.02700
C207        C  0.28399535  0.44968178  0.00027100     0.02600
C208        C  0.29719484  0.43591438  0.01970502    -0.17900
H209        H  0.31814827  0.41637678  0.01933918     0.04700
H210        H  0.22321446  0.00674005  0.02115155     0.04700
C211        C  0.37560545  0.37213856  0.85597769     0.03500
C212        C  0.35963933  0.34444653  0.84467665    -0.12600
C213        C  0.37135289  0.33542956  0.82398384     0.01000
C214        C  0.39919203  0.35447690  0.81462410    -0.11200
C215        C  0.41511238  0.38256824  0.82564657     0.03500
C216        C  0.40288767  0.39161231  0.84625366    -0.10600
H217        H  0.33842133  0.32964043  0.85221753     0.09100
H218        H  0.40844771  0.34759391  0.79867528     0.06600
H219        H  0.41486474  0.41322812  0.85498531     0.06500
C220        C  0.41766233  0.11172070  0.85951560     0.03500
C221        C  0.43535752  0.08393359  0.84919896    -0.12600
C222        C  0.42737411  0.07573427  0.82769460     0.01000
C223        C  0.40096118  0.09467674  0.81685741    -0.11200
C224        C  0.38251066  0.12172084  0.82718107     0.03500
C225        C  0.39051470  0.12987942  0.84867302    -0.10600
H226        H  0.45737806  0.07104366  0.85720528     0.09100
H227        H  0.39582768  0.08939395  0.79996551     0.06600
H228        H  0.37796583  0.15227054  0.85631782     0.06500
C229        C  0.18025713  0.07012568  0.85646556     0.03500
C230        C  0.15332647  0.05269063  0.84503877    -0.12600
C231        C  0.14356193  0.06399644  0.82428664     0.01000
C232        C  0.16172351  0.09236981  0.81483043    -0.11200
C233        C  0.18921032  0.10952479  0.82586354     0.03500
C234        C  0.19844919  0.09815204  0.84667860    -0.10600
H235        H  0.13952859  0.03085903  0.85257876     0.09100
H236        H  0.15456371  0.10120616  0.79880714     0.06600
H237        H  0.21918018  0.11149940  0.85556935     0.06500
C238        C  0.13986958  0.33454983  0.85919711     0.03500
C239        C  0.12264093  0.36220822  0.84853584    -0.12600
C240        C  0.13080024  0.36998202  0.82703623     0.01000
C241        C  0.15690000  0.35026592  0.81636928    -0.11200
C242        C  0.17583611  0.32390500  0.82738433     0.03500
C243        C  0.16729615  0.31623380  0.84889151    -0.10600
H244        H  0.10086282  0.37561905  0.85640273     0.09100
H245        H  0.16212526  0.35510041  0.79943391     0.06600
H246        H  0.17991542  0.29426177  0.85702485     0.06500
C247        C  0.14435525  0.10639007  0.67721872     0.03500
C248        C  0.17065498  0.12525263  0.68835949    -0.12600
C249        C  0.17747320  0.11798265  0.71016629     0.01000
C250        C  0.15822864  0.09137706  0.72063964    -0.11200
C251        C  0.13302794  0.07146087  0.70939959     0.03500
C252        C  0.12656624  0.07867382  0.68761443    -0.10600
H253        H  0.18341040  0.14754167  0.68063629     0.09100
H254        H  0.16208636  0.08685415  0.73774761     0.06600
H255        H  0.10542321  0.06496003  0.67927157     0.06500
C256        C  0.37767584  0.07214682  0.68006645     0.03500
C257        C  0.40531419  0.05473822  0.69067218    -0.12600
C258        C  0.41666231  0.06569163  0.71116904     0.01000
C259        C  0.39975717  0.09443383  0.72104036    -0.11200
C260        C  0.37133379  0.11154935  0.71070579     0.03500
C261        C  0.36047667  0.10013201  0.69020954    -0.10600
H262        H  0.41808467  0.03291420  0.68263479     0.09100
H263        H  0.40830191  0.10307496  0.73685096     0.06600
H264        H  0.33903802  0.11323054  0.68181512     0.06500
C265        C  0.35480434  0.30583312  0.81241670     0.42800
N266        N  0.32076131  0.26222224  0.80551520     0.01700
C267        C  0.32015714  0.15816016  0.71392801    -0.06100
H268        H  0.30726219  0.28984951  0.69744113     0.07200
C269        C  0.19040585  0.28625724  0.74359365    -0.06500
Co270      Co  0.34344725  0.22336812  0.76589893     0.74200
N271        N  0.31525348  0.26068149  0.72705054    -0.25700
Co272      Co  0.27559994  0.22230216  0.72834842     0.74100
C273        C  0.20212277  0.30414943  0.72397649     0.42900
N274        N  0.21639539  0.26017473  0.79382745     0.01400
N275        N  0.23625851  0.26033250  0.73020668     0.01500
N276        N  0.36442518  0.15896215  0.73863440    -0.46500
H277        H  0.38915360  0.29491937  0.78238998     0.07200
N278        N  0.34048911  0.26151736  0.74178210     0.01700
N279        N  0.23624482  0.18360125  0.73018764     0.01500
C280        C  0.20017360  0.14159829  0.72293678     0.43100
N281        N  0.24160891  0.26053276  0.80857109    -0.25100
C282        C  0.36930076  0.16026702  0.79351608    -0.06000
N283        N  0.32635382  0.28776283  0.81956599    -0.46200
N284        N  0.22839496  0.15972858  0.71534989    -0.46500
C285        C  0.35971036  0.14497559  0.81425842     0.42900
N286        N  0.34110344  0.18443516  0.74211353     0.01700
N287        N  0.24401486  0.18409538  0.80884026    -0.25100
N288        N  0.34406476  0.26215067  0.78965634    -0.25600
N289        N  0.21824338  0.18309878  0.79446194     0.01400
H290        H  0.25631016  0.15237769  0.83672876     0.07300
H291        H  0.16785783  0.15156453  0.75370970     0.07300
N292        N  0.31510665  0.18444404  0.72786396    -0.25700
N293        N  0.21313818  0.25961556  0.74614590    -0.25300
N294        N  0.32278600  0.18582854  0.80644214     0.01700
C295        C  0.35494053  0.30223800  0.71944317     0.43100
C296        C  0.23369257  0.28533729  0.82322159    -0.06600
N297        N  0.21397437  0.18298323  0.74655968    -0.25300
H298        H  0.16844223  0.29195718  0.75418420     0.07300
N299        N  0.36475724  0.28582505  0.73779112    -0.46500
H300        H  0.24851218  0.29076100  0.83777445     0.07300
C301        C  0.20742373  0.13977080  0.81572430     0.43000
C302        C  0.36670688  0.28891659  0.79257296    -0.06000
Co303      Co  0.28240152  0.22324021  0.80779916     0.73800
N304        N  0.19131750  0.28377367  0.79745545    -0.46200
C305        C  0.35284168  0.14125639  0.72109961     0.43200
N306        N  0.33102565  0.16247825  0.82156858    -0.46200
Co307      Co  0.21477142  0.22138017  0.77025797     0.73900
C308        C  0.19048213  0.15705318  0.74355167    -0.06600
C309        C  0.32233471  0.28527640  0.71202029    -0.06100
N310        N  0.34521815  0.18552009  0.79013498    -0.25600
N311        N  0.23061726  0.28654972  0.71649616    -0.46400
H312        H  0.30318744  0.15221063  0.70036624     0.07200
C313        C  0.23946132  0.15778256  0.82300478    -0.06500
Cl314      Cl  0.27907570  0.22256633  0.76807690    -0.49500
C315        C  0.20058197  0.30108673  0.81553229     0.43000
H316        H  0.39210525  0.15505805  0.78347970     0.07200
N317        N  0.19570086  0.15697599  0.79800267    -0.46200
C318        C  0.41523324  0.33808293  0.67607110     0.03500
C319        C  0.38732786  0.31962173  0.68596537    -0.12600
C320        C  0.37870519  0.32617417  0.70758447     0.01000
C321        C  0.39746476  0.35195897  0.71903139    -0.11200
C322        C  0.42438349  0.37158593  0.70908212     0.03500
C323        C  0.43293405  0.36482708  0.68745407    -0.10600
H324        H  0.37472159  0.29803118  0.67750683     0.09100
H325        H  0.39189014  0.35591621  0.73599603     0.06600
H326        H  0.45535707  0.37804617  0.68009862     0.06500
C327        C  0.18284280  0.37829593  0.68455388     0.03500
C328        C  0.15393447  0.39445685  0.69468118    -0.12600
C329        C  0.14102983  0.38133600  0.71427077     0.01000
C330        C  0.15750218  0.35218281  0.72378172    -0.11200
C331        C  0.18618630  0.33553050  0.71381292     0.03500
C332        C  0.19881807  0.34867993  0.69409587    -0.10600
H333        H  0.14128566  0.41693396  0.68709505     0.09100
H334        H  0.14775543  0.34224571  0.73896788     0.06600
H335        H  0.22063932  0.33574465  0.68599643     0.06500
C336        C  0.44707662  0.39458931  0.72238229     0.42800
N337        N  0.48856960  0.43099437  0.73041212     0.01700
C338        C  0.09264374  0.42758466  0.82292164    -0.06100
H339        H  0.45803073  0.44924697  0.83719670     0.07200
C340        C  0.46596968  0.06220316  0.79435016    -0.06500
Co341      Co  0.02668742  0.40908344  0.77051402     0.74200
N342        N  0.48987864  0.43770045  0.80926282    -0.25700
Co343      Co  0.02945250  0.47576291  0.80849619     0.74100
C344        C  0.45068826  0.05271680  0.81507270     0.42900
N345        N  0.48963035  0.03505921  0.74307347     0.01400
N346        N  0.49187419  0.01609316  0.80745801     0.01500
N347        N  0.09016981  0.38557926  0.79722986    -0.46500
H348        H  0.45690105  0.36197173  0.75309142     0.07200
N349        N  0.48862028  0.41251990  0.79465165     0.01700
N350        N  0.06901626  0.01380941  0.80635751     0.01500
C351        C  0.11367430  0.04710811  0.81283200     0.43100
N352        N  0.48958401  0.00940266  0.72875712    -0.25100
C353        C  0.09175659  0.38512144  0.74402192    -0.06000
N354        N  0.46516163  0.42304434  0.71519228    -0.46200
N355        N  0.09534771  0.01894117  0.82014285    -0.46500
C356        C  0.10986699  0.39725988  0.72461096     0.42900
N357        N  0.06602122  0.41030140  0.79398229     0.01700
N358        N  0.06639234  0.00922202  0.72818890    -0.25100
N359        N  0.48785434  0.40856825  0.74668399    -0.25600
N360        N  0.06726475  0.03414544  0.74294337     0.01400
H361        H  0.09670913  0.00077097  0.69912954     0.07300
H362        H  0.10190500  0.08157073  0.78295262     0.07300
N363        N  0.06685797  0.43523833  0.80873565    -0.25700
N364        N  0.49140084  0.03838745  0.79110634    -0.25300
N365        N  0.06570191  0.43094316  0.73074718     0.01700
C366        C  0.44505398  0.40141468  0.81566963     0.44700
C367        C  0.46310093  0.01453433  0.71481283    -0.06600
N368        N  0.06862927  0.03715291  0.79055455    -0.25300
H369        H  0.46064706  0.08481180  0.78420924     0.07300
N370        N  0.46226094  0.39019628  0.79791984    -0.46500
H371        H  0.45715323  0.99779461  0.70121200     0.07300
C372        C  0.10928985  0.04777438  0.72132811     0.43000
C373        C  0.46217517  0.38489285  0.74320827    -0.06000
Co374      Co  0.02756516  0.47010441  0.72904849     0.73800
N375        N  0.46399450  0.05831031  0.73955781    -0.46200
C376        C  0.10844859  0.39491055  0.81498568     0.43200
N377        N  0.09217919  0.42568517  0.71715999    -0.46200
Co378      Co  0.02912998  0.03693976  0.76689811     0.73900
C379        C  0.09593602  0.05929748  0.79322043    -0.06600
C380        C  0.46336424  0.43291337  0.82332529    -0.06100
N381        N  0.06492325  0.40762736  0.74653145    -0.25600
N382        N  0.46839909  0.02425516  0.82254957    -0.46400
H383        H  0.09877033  0.44235973  0.83733725     0.07200
C384        C  0.09179750  0.01582954  0.71359357    -0.06500
Cl385      Cl  0.02810419  0.47298910  0.76874609    -0.49500
C386        C  0.44611751  0.04695540  0.72196275     0.43000
H387        H  0.09751297  0.36312472  0.75454761     0.07200
N388        N  0.09232179  0.05779893  0.73938147    -0.46200
C389        C  0.21237190  0.98485213  0.94565515    -0.22100
C390        C  0.21831734  0.02069631  0.94159304     0.09900
C391        C  0.23365723  0.04195955  0.95769313     0.10300
C392        C  0.24474534  0.02635800  0.97708474    -0.17000
C393        C  0.24070579  0.49004446  0.98074738    -0.27400
C394        C  0.22268437  0.46936583  0.96523573     0.18600
C395        C  0.20925971  0.03500324  0.92006846     0.12600
C396        C  0.23853620  0.08096727  0.95431375    -0.11800
H397        H  0.25768051  0.04237820  0.98921374     0.12900
C398        C  0.21299627  0.43132300  0.96896745    -0.22600
H399        H  0.19967750  0.46884738  0.93343334     0.08500
C400        C  0.23430544  0.03508075  0.90320651     0.04800
C401        C  0.22408744  0.04681388  0.88265644    -0.19800
C402        C  0.18957016  0.05905295  0.87869208    -0.12100
C403        C  0.16493437  0.06039476  0.89591327     0.13600
C404        C  0.17498083  0.04774976  0.91630485    -0.22600
C405        C  0.27178672  0.52280966  0.90695554    -0.05600
H406        H  0.24306310  0.04625535  0.86954839     0.15100
C407        C  0.12832834  0.07590385  0.89361844    -0.15800
H408        H  0.15604311  0.04815482  0.92944351     0.09400
H409        H  0.22599526  0.41460950  0.95662972     0.07300
H410        H  0.18383338  0.42814160  0.96749600     0.08500
H411        H  0.22070540  0.42170750  0.98518203     0.07500
H412        H  0.21236866  0.09351750  0.95146496     0.02400
H413        H  0.25582190  0.08585208  0.94016763     0.02900
H414        H  0.25090648  0.09370601  0.96855919     0.06400
H415        H  0.28770737  0.52348065  0.89191662     0.05400
H416        H  0.27168429  0.49548187  0.91318347    -0.00400
H417        H  0.28493361  0.53997994  0.91899963     0.01100
H418        H  0.10816505  0.05523080  0.89681386     0.04700
H419        H  0.12322390  0.08733592  0.87747923     0.06700
H420        H  0.12493704  0.09743652  0.90552546     0.07500
C421        C  0.32931786  0.44717254  0.94552952    -0.22100
C422        C  0.32440278  0.41180604  0.93994638     0.09900
C423        C  0.30848213  0.38840129  0.95471192     0.10300
C424        C  0.29601064  0.40146203  0.97441461    -0.17000
C425        C  0.29964544  0.43723458  0.97973698    -0.27400
C426        C  0.31794012  0.46005557  0.96547824     0.18600
C427        C  0.33673814  0.39996208  0.91860891     0.12600
C428        C  0.30496932  0.34973478  0.94972972    -0.11800
H429        H  0.28282944  0.38382919  0.98561167     0.12900
C430        C  0.32709754  0.99758873  0.97102118    -0.22600
H431        H  0.34257332  0.46475475  0.93431848     0.08500
C432        C  0.31388362  0.39984502  0.90061405     0.04800
C433        C  0.32742271  0.39063880  0.88038564    -0.19800
C434        C  0.36308233  0.38097452  0.87785876    -0.12100
C435        C  0.38561574  0.37977897  0.89612894     0.13600
C436        C  0.37222717  0.38996819  0.91622695    -0.22600
C437        C  0.27533632  0.40957694  0.90274247    -0.05600
H438        H  0.31015675  0.39116048  0.86640133     0.15100
C439        C  0.42340158  0.36691589  0.89525031    -0.15800
H440        H  0.38948689  0.38974659  0.93022341     0.09400
H441        H  0.31437544  0.01570467  0.95926028     0.07300
H442        H  0.35626977  0.00117112  0.97010978     0.08500
H443        H  0.31880086  0.00509248  0.98749865     0.07500
H444        H  0.33165679  0.33821189  0.94712057     0.02400
H445        H  0.28879736  0.34592994  0.93498364     0.02900
H446        H  0.29204987  0.33512557  0.96311986     0.06400
H447        H  0.26144404  0.40900079  0.88695377     0.05400
H448        H  0.27292934  0.43642730  0.90944504    -0.00400
H449        H  0.26174815  0.39086704  0.91372341     0.01100
H450        H  0.44162350  0.38862918  0.89983050     0.04700
H451        H  0.43122129  0.35701949  0.87917898     0.06700
H452        H  0.42686671  0.34480496  0.90681944     0.07500
C453        C  0.13525384  0.13844541  0.61921408    -0.22100
C454        C  0.10027832  0.15099440  0.61940173     0.09900
C455        C  0.07988091  0.14810946  0.63833403     0.10300
C456        C  0.09499327  0.13272908  0.65670971    -0.17000
C457        C  0.13007660  0.12029346  0.65666513    -0.27400
C458        C  0.15049479  0.12308031  0.63763336     0.18600
C459        C  0.08559607  0.16734105  0.59963447     0.12600
C460        C  0.04248931  0.16195697  0.63927393    -0.11800
H461        H  0.07953966  0.13099934  0.67140759     0.12900
C462        C  0.18795864  0.10960326  0.63604625    -0.22600
H463        H  0.15074749  0.14064296  0.60455544     0.08500
C464        C  0.09387822  0.20233681  0.59388802     0.04800
C465        C  0.08007144  0.21641808  0.57472573    -0.19800
C466        C  0.05764060  0.19653781  0.56136982    -0.12100
C467        C  0.04858772  0.16169925  0.56749652     0.13600
C468        C  0.06294209  0.14749053  0.58649556    -0.22600
C469        C  0.11710657  0.22482983  0.60804199    -0.05600
H470        H  0.08727985  0.24293231  0.56993886     0.15100
C471        C  0.02358342  0.13891630  0.55467319    -0.15800
H472        H  0.05633240  0.12073252  0.59115502     0.09400
H473        H  0.20610687  0.13184403  0.63234015     0.07300
H474        H  0.18967646  0.08992528  0.62287339     0.08500
H475        H  0.19724012  0.09663471  0.65103658     0.07500
H476        H  0.02568197  0.14794225  0.62736357     0.02400
H477        H  0.04235920  0.19058998  0.63555897     0.02900
H478        H  0.03054725  0.15814501  0.65547120     0.06400
H479        H  0.12048595  0.25177522  0.60132676     0.05400
H480        H  0.14373866  0.21268645  0.60960163    -0.00400
H481        H  0.10498557  0.22720143  0.62427340     0.01100
H482        H  0.03777727  0.11503780  0.54905190     0.04700
H483        H  0.01226656  0.15250326  0.54044401     0.06700
H484        H  0.50110932  0.13076937  0.56507609     0.07500
C485        C  0.46100730  0.25760273  0.58639431    -0.22100
C486        C  0.47659757  0.28633386  0.59689574     0.09900
C487        C  0.50839529  0.30085847  0.58882376     0.10300
C488        C  0.52368785  0.28653458  0.57017114    -0.17000
C489        C  0.00818847  0.25755654  0.55976295    -0.27400
C490        C  0.47635102  0.24307431  0.56786129     0.18600
C491        C  0.45998017  0.29982253  0.61686565     0.12600
C492        C  0.52619227  0.33128987  0.59999622    -0.11800
H493        H  0.04787919  0.29772002  0.56375250     0.12900
C494        C  0.45758785  0.21262078  0.55724082    -0.22600
H495        H  0.43667805  0.24643019  0.59272570     0.08500
C496        C  0.43302154  0.32562078  0.61642400     0.04800
C497        C  0.41874557  0.33789347  0.63596636    -0.19800
C498        C  0.43063144  0.32451694  0.65580194    -0.12100
C499        C  0.45714054  0.29809895  0.65611769     0.13600
C500        C  0.47152688  0.28623236  0.63663949    -0.22600
C501        C  0.41941315  0.34003959  0.59535374    -0.05600
H502        H  0.39824920  0.35788843  0.63579462     0.15100
C503        C  0.47087891  0.28172422  0.67666776    -0.15800
H504        H  0.99200342  0.26622901  0.63686130     0.09400
H505        H  0.43023085  0.22065493  0.55282546     0.07300
H506        H  0.95622406  0.19004460  0.56871286     0.08500
H507        H  0.97080267  0.20343019  0.54238852     0.07500
H508        H  0.53336696  0.32359077  0.61671504     0.02400
H509        H  0.50793459  0.35419124  0.60050362     0.02900
H510        H  0.55079866  0.33953425  0.59155895     0.06400
H511        H  0.39837716  0.36007904  0.59783891     0.05400
H512        H  0.40810289  0.31831991  0.58555430    -0.00400
H513        H  0.44144152  0.35257915  0.58629789     0.01100
H514        H  0.96596511  0.25294095  0.67636260     0.04700
H515        H  0.45827136  0.29242728  0.69137107     0.06700
H516        H  0.99987909  0.28643945  0.67794129     0.07500
C517        C  0.08468583  0.28271192  0.89915818    -0.22100
C518        C  0.09668101  0.29663972  0.91870230     0.09900
C519        C  0.12285380  0.32322664  0.91876568     0.10300
C520        C  0.13669983  0.33522328  0.89907391    -0.17000
C521        C  0.12494866  0.32099126  0.87950828    -0.27400
C522        C  0.09840798  0.29459316  0.87950177     0.18600
C523        C  0.08224043  0.28190198  0.93889238     0.12600
C524        C  0.13595954  0.33891279  0.93957478    -0.11800
H525        H  0.15676510  0.35567939  0.89890639     0.12900
C526        C  0.08389802  0.27840227  0.85913312    -0.22600
H527        H  0.06457504  0.26226410  0.89927054     0.08500
C528        C  0.04943683  0.29315520  0.94729383     0.04800
C529        C  0.03652445  0.27751910  0.96621811    -0.19800
C530        C  0.05575798  0.25097607  0.97675010    -0.12100
C531        C  0.08851606  0.23960142  0.96824897     0.13600
C532        C  0.10135304  0.25526571  0.94936274    -0.22600
C533        C  0.02842340  0.32190883  0.93645682    -0.05600
H534        H  0.01161181  0.28629956  0.97300445     0.15100
C535        C  0.11046115  0.21100163  0.97859917    -0.15800
H536        H  0.12640641  0.24658488  0.94269152     0.09400
H537        H  0.05488339  0.28309970  0.85823466     0.07300
H538        H  0.08875439  0.24955356  0.85936416     0.08500
H539        H  0.09600437  0.28926942  0.84427851     0.07500
H540        H  0.14813021  0.31805853  0.94973436     0.02400
H541        H  0.11345676  0.35091116  0.94842437     0.02900
H542        H  0.15618735  0.35968775  0.93672932     0.06400
H543        H  0.00355404  0.32778050  0.94531045     0.05400
H544        H  0.02124336  0.31377854  0.91984317    -0.00400
H545        H  0.04448994  0.34640001  0.93572364     0.01100
H546        H  0.11459804  0.18933855  0.96687820     0.04700
H547        H  0.09787909  0.19948727  0.99312641     0.06700
H548        H  0.13664204  0.22188849  0.98335436     0.07500
C549        C  0.46798761  0.16810166  0.89968240    -0.22100
C550        C  0.45787960  0.15261584  0.91922590     0.09900
C551        C  0.43441177  0.12362284  0.91919844     0.10300
C552        C  0.42174351  0.11051143  0.89946452    -0.17000
C553        C  0.43187974  0.12602546  0.87988777    -0.27400
C554        C  0.45540196  0.15513885  0.87997759     0.18600
C555        C  0.47259855  0.16709795  0.93948941     0.12600
C556        C  0.42273183  0.10671494  0.93998737    -0.11800
H557        H  0.40373909  0.08824437  0.89928388     0.12900
C558        C  0.46811689  0.17294958  0.85963970    -0.22600
H559        H  0.48608224  0.19032556  0.89981260     0.08500
C560        C  0.50515884  0.15503115  0.94792805     0.04800
C561        C  0.01830410  0.16978475  0.96706668    -0.19800
C562        C  0.49975799  0.19659787  0.97772430    -0.12100
C563        C  0.46741287  0.20907757  0.96907162     0.13600
C564        C  0.45416644  0.19403505  0.95005605    -0.22600
C565        C  0.02610078  0.12679095  0.93663982    -0.05600
H566        H  0.04318677  0.16050872  0.97372684     0.15100
C567        C  0.44651807  0.23843906  0.97929302    -0.15800
H568        H  0.42939290  0.20351396  0.94333836     0.09400
H569        H  0.49749892  0.17173181  0.85893327     0.07300
H570        H  0.45981534  0.20100747  0.85973828     0.08500
H571        H  0.45769774  0.16068038  0.84474171     0.07500
H572        H  0.40883375  0.12643087  0.95010138     0.02400
H573        H  0.44613827  0.09659215  0.94890421     0.02900
H574        H  0.40435107  0.08433712  0.93711513     0.06400
H575        H  0.05095077  0.12036875  0.94542134     0.05400
H576        H  0.03330588  0.13585257  0.92018997    -0.00400
H577        H  0.01002092  0.10238006  0.93541476     0.01100
H578        H  0.44383842  0.26054682  0.96764814     0.04700
H579        H  0.45911188  0.24892139  0.99409601     0.06700
H580        H  0.41968110  0.22872590  0.98360752     0.07500
C581        C  0.34203597  0.98646217  0.59158590    -0.22100
C582        C  0.33324948  0.02125333  0.59679545     0.09900
C583        C  0.31470588  0.04227940  0.58179512     0.10300
C584        C  0.30396174  0.02743479  0.56216608    -0.17000
C585        C  0.31177907  0.49213676  0.55721514    -0.27400
C586        C  0.33174627  0.47163883  0.57190973     0.18600
C587        C  0.34387504  0.03510481  0.61807111     0.12600
C588        C  0.30624779  0.08024658  0.58655942    -0.11800
H589        H  0.28919017  0.54309103  0.55065315     0.12900
C590        C  0.34315480  0.43445850  0.56716554    -0.22600
H591        H  0.35691851  0.97067709  0.60304184     0.08500
C592        C  0.32113552  0.03272561  0.63604335     0.04800
C593        C  0.33265532  0.04563783  0.65602109    -0.19800
C594        C  0.36642658  0.06067795  0.65836913    -0.12100
C595        C  0.38891667  0.06364982  0.64019885     0.13600
C596        C  0.37740458  0.05048384  0.62029854    -0.22600
C597        C  0.28469419  0.51708896  0.63402559    -0.05600
H598        H  0.31549602  0.04350427  0.66997235     0.15100
C599        C  0.42473705  0.08124153  0.64104983    -0.15800
H600        H  0.39459885  0.05246785  0.60634584     0.09400
H601        H  0.33157931  0.41631804  0.57933075     0.07300
H602        H  0.37280026  0.93304342  0.56780096     0.08500
H603        H  0.33503910  0.42555141  0.55090154     0.07500
H604        H  0.33121098  0.09511700  0.58924602     0.02400
H605        H  0.28953357  0.08205710  0.60121422     0.02900
H606        H  0.29172226  0.09293742  0.57303632     0.06400
H607        H  0.27029520  0.51735111  0.64962870     0.05400
H608        H  0.28701424  0.48931954  0.62864113    -0.00400
H609        H  0.26872889  0.53205028  0.62209127     0.01100
H610        H  0.44562715  0.06182495  0.63691113     0.04700
H611        H  0.43101343  0.09258877  0.65703250     0.06700
H612        H  0.42553569  0.10313652  0.62915291     0.07500
C613        C  0.24071496  0.39848047  0.58617588    -0.22100
C614        C  0.22495911  0.42354473  0.59957953     0.09900
C615        C  0.22136048  0.45866183  0.59244670     0.10300
C616        C  0.23453247  0.46811739  0.57209941    -0.17000
C617        C  0.25111603  0.44320061  0.55879903    -0.27400
C618        C  0.25382821  0.40774986  0.56583307     0.18600
C619        C  0.21359630  0.41256613  0.62134593     0.12600
C620        C  0.20366776  0.48597604  0.60633114    -0.11800
H621        H  0.23213191  0.49513769  0.56656053     0.12900
C622        C  0.27118517  0.37918599  0.55269480    -0.22600
H623        H  0.24329492  0.37149489  0.59180953     0.08500
C624        C  0.17925579  0.39938937  0.62518116     0.04800
C625        C  0.16996227  0.38888463  0.64608700    -0.19800
C626        C  0.19437948  0.39087786  0.66313869    -0.12100
C627        C  0.22880910  0.40429655  0.65927441     0.13600
C628        C  0.23801991  0.41477252  0.63832762    -0.22600
C629        C  0.15267021  0.39595092  0.60717490    -0.05600
H630        H  0.14365233  0.37850172  0.64911735     0.15100
C631        C  0.25612686  0.40877914  0.67681325    -0.15800
H632        H  0.26439491  0.42494301  0.63521559     0.09400
H633        H  0.25142516  0.35834991  0.54903011     0.07300
H634        H  0.29322381  0.36728744  0.56208896     0.08500
H635        H  0.28238246  0.38873959  0.53727545     0.07500
H636        H  0.21759852  0.48800972  0.62202203     0.02400
H637        H  0.17570979  0.47837023  0.60934114     0.02900
H638        H  0.20383292  0.51237150  0.59855963     0.06400
H639        H  0.12706306  0.38504796  0.61298270     0.05400
H640        H  0.16318296  0.37802005  0.59460840    -0.00400
H641        H  0.14743998  0.42214782  0.59987556     0.01100
H642        H  0.27947898  0.39197355  0.67328809     0.04700
H643        H  0.24606912  0.40182543  0.69303509     0.06700
H644        H  0.26478029  0.43673441  0.67737288     0.07500
C645        C  0.22282388  0.03066692  0.13689244    -0.22100
C646        C  0.20445789  0.03751787  0.11775788     0.09900
C647        C  0.17381671  0.05884121  0.11809358     0.10300
C648        C  0.16235244  0.07318777  0.13775288    -0.17000
C649        C  0.18094619  0.06648045  0.15691381    -0.27400
C650        C  0.21134570  0.04462104  0.15652210     0.18600
C651        C  0.21796169  0.02165685  0.09765976     0.12600
C652        C  0.15339952  0.06640596  0.09774263    -0.11800
H653        H  0.13885766  0.08957970  0.13821559     0.12900
C654        C  0.23197528  0.03479475  0.17649415    -0.22600
H655        H  0.24617340  0.51400561  0.13652110     0.08500
C656        C  0.24521896  0.03791177  0.08569447     0.04800
C657        C  0.25796846  0.02135233  0.06708836    -0.19800
C658        C  0.24436373  0.98875476  0.06042299    -0.12100
C659        C  0.21720680  0.97235842  0.07250366     0.13600
C660        C  0.20442529  0.98901792  0.09107848    -0.22600
C661        C  0.26072797  0.07269204  0.09257193    -0.05600
H662        H  0.27862959  0.03385157  0.05764168     0.15100
C663        C  0.20087457  0.43773315  0.06612375    -0.15800
H664        H  0.18369814  0.97653097  0.10047935     0.09400
H665        H  0.25967195  0.04435931  0.17493156     0.07300
H666        H  0.23232081  0.50567398  0.17827790     0.08500
H667        H  0.22072513  0.04585863  0.19149472     0.07500
H668        H  0.14365809  0.04135262  0.09068361     0.02400
H669        H  0.17085339  0.07986935  0.08591216     0.02900
H670        H  0.13016113  0.08362079  0.10082525     0.06400
H671        H  0.28168878  0.08183126  0.08131016     0.05400
H672        H  0.27270000  0.07007235  0.10884983    -0.00400
H673        H  0.23959273  0.09300753  0.09303315     0.01100
H674        H  0.20549364  0.41801620  0.07907528     0.04700
H675        H  0.21180510  0.42715232  0.05090866     0.06700
H676        H  0.17184009  0.94116379  0.06386405     0.07500
C677        C  0.12826315  0.16368869  0.41169741    -0.22100
C678        C  0.09587394  0.15163608  0.42016083     0.09900
C679        C  0.07491225  0.12891964  0.40725102     0.10300
C680        C  0.08501237  0.12233873  0.38592299    -0.17000
C681        C  0.11876943  0.13176844  0.37804007    -0.27400
C682        C  0.14157028  0.15096148  0.39206231     0.18600
C683        C  0.08390355  0.16448596  0.44182121     0.12600
C684        C  0.04280921  0.10932865  0.41551269    -0.11800
H685        H  0.06653729  0.10811997  0.37581770     0.12900
C686        C  0.18076955  0.15585331  0.38826952    -0.22600
H687        H  0.14462039  0.18131490  0.42116797     0.08500
C688        C  0.10680903  0.16691235  0.45997837     0.04800
C689        C  0.09480119  0.18377761  0.47872874    -0.19800
C690        C  0.05918997  0.19384658  0.48109394    -0.12100
C691        C  0.03522074  0.18577636  0.46428198     0.13600
C692        C  0.04849198  0.17527919  0.44427887    -0.22600
C693        C  0.14327420  0.15070977  0.46077751    -0.05600
H694        H  0.11321932  0.18805003  0.49189821     0.15100
C695        C  0.99563813  0.18482803  0.46726959    -0.15800
H696        H  0.03030738  0.17362680  0.43079676     0.09400
H697        H  0.19554978  0.14947797  0.40328204     0.07300
H698        H  0.18638448  0.18365413  0.38383301     0.08500
H699        H  0.19145554  0.13772993  0.37593860     0.07500
H700        H  0.01850263  0.11962055  0.40760065     0.02400
H701        H  0.03988310  0.11072206  0.43324386     0.02900
H702        H  0.04543642  0.08090416  0.41162263     0.06400
H703        H  0.14551420  0.13376909  0.47533894     0.05400
H704        H  0.16362085  0.17179759  0.46172307    -0.00400
H705        H  0.14892181  0.13346477  0.44684050     0.01100
H706        H  0.98265645  0.20268402  0.45550895     0.04700
H707        H  0.98743384  0.19178292  0.48386567     0.06700
H708        H  0.98597579  0.15766785  0.46415805     0.07500
C709        C  0.33373510  0.03300259  0.40161453    -0.22100
C710        C  0.35677197  0.03052472  0.41923103     0.09900
C711        C  0.39192249  0.04286879  0.41729691     0.10300
C712        C  0.40286281  0.05862725  0.39788270    -0.17000
C713        C  0.37966934  0.06153631  0.38022884    -0.27400
C714        C  0.34489490  0.04748855  0.38195717     0.18600
C715        C  0.34291066  0.01587453  0.43970703     0.12600
C716        C  0.41791843  0.03888449  0.43558392    -0.11800
H717        H  0.42973866  0.06846978  0.39637687     0.12900
C718        C  0.31925985  0.04563109  0.36329933    -0.22600
H719        H  0.30692419  0.02293133  0.40312061     0.08500
C720        C  0.32879816  0.03820149  0.45562190     0.04800
C721        C  0.31473210  0.02343970  0.47445680    -0.19800
C722        C  0.31348879  0.48665477  0.47762041    -0.12100
C723        C  0.32843086  0.46427639  0.46181894     0.13600
C724        C  0.34256355  0.47919748  0.44290184    -0.22600
C725        C  0.32762881  0.07757241  0.45245776    -0.05600
H726        H  0.30350656  0.04065183  0.48657983     0.15100
C727        C  0.33096252  0.42493379  0.46460872    -0.15800
H728        H  0.35360968  0.46218148  0.43061381     0.09400
H729        H  0.29571420  0.06217541  0.36679876     0.07300
H730        H  0.31046564  0.01793905  0.36110273     0.08500
H731        H  0.33077658  0.05416107  0.34775858     0.07500
H732        H  0.42108418  0.01053839  0.43960106     0.02400
H733        H  0.40823107  0.05304981  0.45003290     0.02900
H734        H  0.44439519  0.04965231  0.43133439     0.06400
H735        H  0.31533248  0.09110540  0.46642425     0.05400
H736        H  0.31178786  0.08396555  0.43787467    -0.00400
H737        H  0.35484470  0.08812165  0.45043465     0.01100
H738        H  0.31510213  0.41169326  0.45189590     0.04700
H739        H  0.32149093  0.41583304  0.48056922     0.06700
H740        H  0.35905963  0.41662748  0.46308326     0.07500
C741        C  0.10883409  0.25837557  0.08188529    -0.22100
C742        C  0.08651943  0.27651228  0.09605533     0.09900
C743        C  0.05088619  0.28270974  0.09032152     0.10300
C744        C  0.03828077  0.27040586  0.07046919    -0.17000
C745        C  0.06024122  0.25128048  0.05649937    -0.27400
C746        C  0.09606910  0.24524538  0.06225022     0.18600
C747        C  0.10049992  0.28730657  0.11729925     0.12600
C748        C  0.02605084  0.30169583  0.10532187    -0.11800
H749        H  0.01095721  0.27519067  0.06594107     0.12900
C750        C  0.12123193  0.22405686  0.04858451    -0.22600
H751        H  0.13613716  0.25353131  0.08649169     0.08500
C752        C  0.10210524  0.26328870  0.13464267     0.04800
C753        C  0.11386218  0.27502279  0.15482389    -0.19800
C754        C  0.12463455  0.31005785  0.15796736    -0.12100
C755        C  0.12432296  0.33377202  0.14026596     0.13600
C756        C  0.11173450  0.32213405  0.12022044    -0.22600
C757        C  0.09112491  0.22540081  0.13185125    -0.05600
H758        H  0.11429143  0.25683897  0.16833359     0.15100
C759        C  0.13793590  0.37105099  0.14166888    -0.15800
H760        H  0.11091990  0.34028827  0.10669216     0.09400
H761        H  0.13183849  0.20172644  0.05821482     0.07300
H762        H  0.14364672  0.24103287  0.04339474     0.08500
H763        H  0.10865057  0.21275452  0.03404089     0.07500
H764        H  0.03595300  0.32879289  0.10829396     0.02400
H765        H  0.02438243  0.28734231  0.12089501     0.02900
H766        H  0.99887195  0.30363979  0.09851463     0.06400
H767        H  0.09289275  0.21040102  0.14720836     0.05400
H768        H  0.10859102  0.21244454  0.11987691    -0.00400
H769        H  0.06341347  0.22409740  0.12601476     0.01100
H770        H  0.15901696  0.37508897  0.12942509     0.04700
H771        H  0.14961637  0.37744712  0.15756117     0.06700
H772        H  0.11595548  0.38973973  0.13835703     0.07500
C773        C  0.45922959  0.19441702  0.08591660    -0.22100
C774        C  0.48171398  0.17337151  0.09849081     0.09900
C775        C  0.01568029  0.16439674  0.09070694     0.10300
C776        C  0.02626110  0.17654719  0.07035069    -0.17000
C777        C  0.50380289  0.19776817  0.05780304    -0.27400
C778        C  0.47002640  0.20720246  0.06577360     0.18600
C779        C  0.46906829  0.16089262  0.11973080     0.12600
C780        C  0.04096522  0.14264845  0.10403144    -0.11800
H781        H  0.05233655  0.16991724  0.06427446     0.12900
C782        C  0.44525546  0.23165502  0.05390273    -0.22600
H783        H  0.43323608  0.20131776  0.09201508     0.08500
C784        C  0.46632019  0.18380523  0.13752377     0.04800
C785        C  0.45514588  0.17031180  0.15743922    -0.19800
C786        C  0.44578250  0.13469513  0.15982746    -0.12100
C787        C  0.44701234  0.11215456  0.14167601     0.13600
C788        C  0.45923850  0.12548704  0.12196046    -0.22600
C789        C  0.47538606  0.22234396  0.13557393    -0.05600
H790        H  0.45377115  0.18763037  0.17128486     0.15100
C791        C  0.43441515  0.07444698  0.14215901    -0.15800
H792        H  0.46051382  0.10826300  0.10805932     0.09400
H793        H  0.43940471  0.25483854  0.06418415     0.07300
H794        H  0.42008053  0.21768832  0.05031461     0.08500
H795        H  0.45631162  0.24165311  0.03853273     0.07500
H796        H  0.02950098  0.11618456  0.10709762     0.02400
H797        H  0.04602094  0.15594201  0.11965588     0.02900
H798        H  0.06680107  0.13902154  0.09576428     0.06400
H799        H  0.47298816  0.23619114  0.15125359     0.05400
H800        H  0.45720810  0.23535328  0.12396239    -0.00400
H801        H  0.00296854  0.22534871  0.12981281     0.01100
H802        H  0.41373593  0.07064671  0.12961961     0.04700
H803        H  0.42249330  0.06666665  0.15775011     0.06700
H804        H  0.45698077  0.05659094  0.13868685     0.07500
C805        C  0.22259582  0.43841746  0.44310397    -0.22100
C806        C  0.21256169  0.40268882  0.44427843     0.09900
C807        C  0.22085944  0.38368043  0.46334820     0.10300
C808        C  0.24084645  0.40008406  0.47956334    -0.17000
C809        C  0.24849447  0.43640456  0.47900954    -0.27400
C810        C  0.23705958  0.45611306  0.46089992     0.18600
C811        C  0.19426429  0.38639811  0.42521485     0.12600
C812        C  0.20735366  0.34703104  0.46805168    -0.11800
H813        H  0.24861100  0.38468096  0.49353689     0.12900
C814        C  0.23636494  0.49575527  0.46034794    -0.22600
H815        H  0.21675747  0.45344218  0.42866293     0.08500
C816        C  0.16711294  0.40408966  0.41368821     0.04800
C817        C  0.15687598  0.39163816  0.39333558    -0.19800
C818        C  0.16829637  0.35867152  0.38542897    -0.12100
C819        C  0.18971312  0.33780634  0.39937319     0.13600
C820        C  0.20541294  0.35338380  0.41755114    -0.22600
C821        C  0.14757931  0.43565173  0.42243295    -0.05600
H822        H  0.13974562  0.40840249  0.38386523     0.15100
C823        C  0.19446118  0.29859176  0.39682808    -0.15800
H824        H  0.22548275  0.33876653  0.42628401     0.09400
H825        H  0.20908098  0.50481862  0.45653242     0.07300
H826        H  0.25452390  0.50558892  0.44761341     0.08500
H827        H  0.24339005  0.50764383  0.47605421     0.07500
H828        H  0.22982202  0.32815547  0.46812305     0.02400
H829        H  0.18685841  0.33808899  0.45651553     0.02900
H830        H  0.19459874  0.34658683  0.48417734     0.06400
H831        H  0.11860134  0.43058039  0.42174967     0.05400
H832        H  0.15363809  0.45926128  0.41249892    -0.00400
H833        H  0.15393738  0.44115362  0.43953273     0.01100
H834        H  0.22250553  0.29247896  0.39294311     0.04700
H835        H  0.17662383  0.28728410  0.38443295     0.06700
H836        H  0.18749494  0.28524098  0.41220650     0.07500
C837        C  0.31026418  0.38421023  0.08473501    -0.22100
C838        C  0.33228037  0.40572240  0.09727617     0.09900
C839        C  0.33813841  0.44100598  0.09102258     0.10300
C840        C  0.32180239  0.45402787  0.07227753    -0.17000
C841        C  0.29964524  0.43258246  0.05970353    -0.27400
C842        C  0.29382778  0.39715192  0.06601389     0.18600
C843        C  0.34773404  0.39117182  0.11740008     0.12600
C844        C  0.36158198  0.46485254  0.10416917    -0.11800
H845        H  0.32655433  0.48099158  0.06728061     0.12900
C846        C  0.27012431  0.37238069  0.05365218    -0.22600
H847        H  0.30560778  0.35720852  0.08972055     0.08500
C848        C  0.32889361  0.39256328  0.13698482     0.04800
C849        C  0.34450956  0.37896632  0.15575497    -0.19800
C850        C  0.37858059  0.36403859  0.15546076    -0.12100
C851        C  0.39726569  0.36211891  0.13573513     0.13600
C852        C  0.38157057  0.37583434  0.11692668    -0.22600
C853        C  0.29245543  0.40872799  0.13807605    -0.05600
H854        H  0.33028171  0.38053530  0.17090176     0.15100
C855        C  0.43328494  0.34525478  0.13389044    -0.15800
H856        H  0.39580532  0.37455324  0.10177200     0.09400
H857        H  0.24852542  0.36290612  0.06434394     0.07300
H858        H  0.28579861  0.34938451  0.04811211     0.08500
H859        H  0.25766559  0.38473494  0.03934617     0.07500
H860        H  0.38874353  0.45370043  0.10501728     0.02400
H861        H  0.35083238  0.46735648  0.12073840     0.02900
H862        H  0.36334745  0.49165981  0.09703220     0.06400
H863        H  0.28148424  0.40782482  0.15467285     0.05400
H864        H  0.27407922  0.39417604  0.12730739    -0.00400
H865        H  0.29361367  0.43672052  0.13289757     0.01100
H866        H  0.43209665  0.32336617  0.12206473     0.04700
H867        H  0.44292642  0.33417526  0.14936136     0.06700
H868        H  0.45280510  0.36508247  0.12818467     0.07500
C869        C  0.47977942  0.26628980  0.40232629    -0.22100
C870        C  0.48150116  0.29332037  0.41764195     0.09900
C871        C  0.47031348  0.32756037  0.41207632     0.10300
C872        C  0.45596056  0.33364673  0.39154224    -0.17000
C873        C  0.45327799  0.30644575  0.37627130    -0.27400
C874        C  0.46618998  0.27250107  0.38156817     0.18600
C875        C  0.49377878  0.28469460  0.43967914     0.12600
C876        C  0.47403067  0.35768925  0.42768946    -0.11800
H877        H  0.44683881  0.35985337  0.38732306     0.12900
C878        C  0.46706440  0.24318961  0.36523244    -0.22600
H879        H  0.48902261  0.24018923  0.40671211     0.08500
C880        C  0.46935294  0.27601504  0.45603400     0.04800
C881        C  0.48199619  0.26583041  0.47634873    -0.19800
C882        C  0.01845396  0.26237555  0.48038595    -0.12100
C883        C  0.04292474  0.27308439  0.46434009     0.13600
C884        C  0.03019389  0.28378737  0.44407950    -0.22600
C885        C  0.43003502  0.27550343  0.45168085    -0.05600
H886        H  0.46325412  0.25788240  0.48868192     0.15100
C887        C  0.08237770  0.27388580  0.46809272    -0.15800
H888        H  0.04881665  0.29111912  0.43153609     0.09400
H889        H  0.43980199  0.23552232  0.36053428     0.07300
H890        H  0.48032442  0.21930612  0.37174950     0.08500
H891        H  0.48193680  0.25189228  0.35073124     0.07500
H892        H  0.00237608  0.36105357  0.43207310     0.02400
H893        H  0.45856252  0.35232811  0.44252561     0.02900
H894        H  0.46439275  0.38285329  0.42064404     0.06400
H895        H  0.41474097  0.26729997  0.46613378     0.05400
H896        H  0.42412274  0.25660283  0.43852624    -0.00400
H897        H  0.42080463  0.30209063  0.44682676     0.01100
H898        H  0.09564542  0.25553468  0.45676902     0.04700
H899        H  0.08977510  0.26650636  0.48479388     0.06700
H900        H  0.09249114  0.30094775  0.46513818     0.07500
C901        C  0.43898169  0.81516665  0.35459308     0.03500
C902        C  0.45433019  0.84280431  0.34285989    -0.12600
C903        C  0.44019138  0.85343916  0.32297866     0.01000
C904        C  0.41092198  0.83553923  0.31452294    -0.11200
C905        C  0.39526949  0.80761965  0.32593922     0.03500
C906        C  0.40909788  0.79783963  0.34615529    -0.10600
H907        H  0.47712296  0.85639459  0.34950239     0.09100
H908        H  0.40015931  0.84343327  0.29906919     0.06600
H909        H  0.39619318  0.77750921  0.35555314     0.06500
C910        C  0.39377966  0.85237492  0.17633595     0.03500
C911        C  0.42134624  0.87177540  0.18595215    -0.12600
C912        C  0.42975703  0.86657768  0.20778683     0.01000
C913        C  0.41106441  0.84132782  0.21978209    -0.11200
C914        C  0.38463799  0.82076539  0.21012661     0.03500
C915        C  0.37626871  0.82620564  0.18834138    -0.10600
H916        H  0.43396415  0.89290192  0.17701752     0.09100
H917        H  0.41652220  0.83829099  0.23685209     0.06600
H918        H  0.35431058  0.81202259  0.18114454     0.06500
C919        C  0.16045139  0.84867925  0.36230104     0.03500
C920        C  0.18423403  0.82737622  0.35051270    -0.12600
C921        C  0.17929346  0.82097372  0.32848066     0.01000
C922        C  0.15300553  0.83942687  0.31727085    -0.11200
C923        C  0.12953408  0.86151967  0.32830164     0.03500
C924        C  0.13188173  0.86414659  0.35086469    -0.10600
H925        H  0.20793890  0.81703288  0.35795021     0.09100
H926        H  0.15089943  0.83671874  0.29991877     0.06600
H927        H  0.11257567  0.88018930  0.35910453     0.06500
C928        C  0.43470763  0.62225928  0.18143418     0.03500
C929        C  0.45300101  0.59500960  0.19181953    -0.12600
C930        C  0.44214254  0.58291347  0.21218548     0.01000
C931        C  0.41322573  0.59922334  0.22243619    -0.11200
C932        C  0.39545593  0.62741757  0.21245099     0.03500
C933        C  0.40632731  0.63853872  0.19188958    -0.10600
H934        H  0.47525356  0.58295211  0.18369673     0.09100
H935        H  0.40480964  0.59025153  0.23821938     0.06600
H936        H  0.39253462  0.65963956  0.18367011     0.06500
C937        C  0.45571663  0.88383622  0.31158480     0.42800
N938        N  0.98875894  0.92847787  0.30538254     0.01700
C939        C  0.99265837  0.53517734  0.21492300    -0.06100
H940        H  0.00158419  0.90237554  0.19728838     0.07200
C941        C  0.11900469  0.90245856  0.24341736    -0.06500
Co942      Co  0.46708898  0.96844537  0.26594677     0.74200
N943        N  0.99430947  0.93142955  0.22692415    -0.25700
Co944      Co  0.03509772  0.96860931  0.22858070     0.74100
C945        C  0.10779166  0.88605084  0.22326249     0.42900
N946        N  0.09251341  0.92728276  0.29422407     0.01400
N947        N  0.07343660  0.92936655  0.23023955     0.01500
N948        N  0.44835379  0.53447364  0.23952027    -0.46500
H949        H  0.42123879  0.89532433  0.28156158     0.07200
N950        N  0.46908710  0.93096693  0.24162893     0.01700
N951        N  0.07557721  0.50595705  0.23078963     0.01500
C952        C  0.11270806  0.54707973  0.22361119     0.43100
N953        N  0.06706689  0.92777082  0.30876009    -0.25100
C954        C  0.44223512  0.53131447  0.29364107    -0.06000
N955        N  0.98379320  0.90210670  0.31896022    -0.46200
N956        N  0.08389503  0.52993310  0.21607802    -0.46500
C957        C  0.45186157  0.54620369  0.31443248     0.42900
N958        N  0.47071844  0.50800894  0.24254836     0.01700
N959        N  0.06760267  0.50427539  0.30925391    -0.25100
N960        N  0.46551492  0.92894219  0.28946844    -0.25600
N961        N  0.09359624  0.50449557  0.29503745     0.01400
H962        H  0.05614820  0.53618518  0.33707598     0.07300
H963        H  0.14516775  0.53554148  0.25423763     0.07300
N964        N  0.99674897  0.50785511  0.22835955    -0.25700
N965        N  0.09630857  0.92894306  0.24636202    -0.25300
N966        N  0.98842158  0.50499619  0.30660943     0.01700
C967        C  0.45352843  0.89103028  0.21919121     0.43100
C968        C  0.07326101  0.90218719  0.32327643    -0.06600
N969        N  0.09804490  0.50550514  0.24710905    -0.25300
H970        H  0.14119443  0.89648454  0.25383382     0.07300
N971        N  0.44422600  0.90732613  0.23759024    -0.46500
H972        H  0.05764256  0.89707286  0.33755446     0.07300
C973        C  0.10585281  0.54704935  0.31644259     0.43000
C974        C  0.44332165  0.90159100  0.29199706    -0.06000
Co975      Co  0.02784961  0.96645328  0.30794536     0.73800
N976        N  0.11631534  0.90239472  0.29800824    -0.46200
C977        C  0.46055998  0.55285233  0.22238931     0.43200
N978        N  0.98031481  0.52817329  0.32179352    -0.46200
Co979      Co  0.09581463  0.96657428  0.27071591     0.73900
C980        C  0.12229275  0.53084006  0.24411964    -0.06600
C981        C  0.98656638  0.90724690  0.21181128    -0.06100
N982        N  0.46600501  0.50582039  0.29028115    -0.25600
N983        N  0.07950122  0.90426014  0.21589306    -0.46400
H984        H  0.00986328  0.54139020  0.20152102     0.07200
C985        C  0.07301559  0.53019813  0.32348614    -0.06500
Cl986      Cl  0.03147418  0.96755401  0.26828106    -0.49500
C987        C  0.10580222  0.88507254  0.31594453     0.43000
H988        H  0.41948834  0.53686243  0.28356703     0.07200
N989        N  0.11701515  0.52981460  0.29868213    -0.46200
C990        C  0.13514391  0.82084033  0.18000945     0.03500
C991        C  0.11643560  0.84756984  0.19077716    -0.12600
C992        C  0.12573898  0.85701198  0.21189492     0.01000
C993        C  0.15321640  0.83897163  0.22228334    -0.11200
C994        C  0.17207709  0.81232384  0.21187146     0.03500
C995        C  0.16282191  0.80313673  0.19070413    -0.10600
H996        H  0.09487119  0.86100222  0.18264915     0.09100
H997        H  0.15986166  0.84555150  0.23871121     0.06600
H998        H  0.17721877  0.78249396  0.18245358     0.06500
C999        C  0.39313258  0.57689514  0.35980823     0.03500
C1000       C  0.42069305  0.55973057  0.34883776    -0.12600
C1001       C  0.42865463  0.56880453  0.32748246     0.01000
C1002       C  0.40964310  0.59586011  0.31736635    -0.11200
C1003       C  0.38311134  0.61428861  0.32839554     0.03500
C1004       C  0.37559501  0.60543318  0.34989351    -0.10600
H1005       H  0.43360125  0.53721337  0.35621516     0.09100
H1006       H  0.41452847  0.60162645  0.30050098     0.06600
H1007       H  0.35377099  0.61815356  0.35812298     0.06500
C1008       C  0.12901727  0.62033834  0.35564197     0.03500
C1009       C  0.15200189  0.64052983  0.34260342    -0.12600
C1010       C  0.16422547  0.62755082  0.32274637     0.01000
C1011       C  0.14897668  0.59684184  0.31426279    -0.11200
C1012       C  0.12353038  0.57805898  0.32599542     0.03500
C1013       C  0.11514221  0.58886686  0.34695707    -0.10600
H1014       H  0.16144136  0.66584842  0.34813414     0.09100
H1015       H  0.15678773  0.58745698  0.29851958     0.06600
H1016       H  0.09810424  0.57217251  0.35654655     0.06500
C1017       C  0.16771646  0.58119525  0.17735212     0.03500
C1018       C  0.18582986  0.60921829  0.18718675    -0.12600
C1019       C  0.17984081  0.61695433  0.20896676     0.01000
C1020       C  0.15510243  0.59702481  0.22066982    -0.11200
C1021       C  0.13559991  0.57024701  0.21064144     0.03500
C1022       C  0.14165928  0.56271784  0.18884832    -0.10600
H1023       H  0.20683039  0.62260219  0.17851184     0.09100
H1024       H  0.15162787  0.60183425  0.23775828     0.06600
H1025       H  0.12851762  0.54045324  0.18139227     0.06500
C1026       C  0.36251517  0.79744194  0.22355201     0.42800
N1027       N  0.32136404  0.76052292  0.23134277     0.01700
C1028       C  0.21869907  0.76396103  0.32443531    -0.06100
H1029       H  0.35193740  0.74117376  0.33792821     0.07200
C1030       C  0.34406227  0.62827001  0.29510638    -0.06500
Co1031     Co  0.28251873  0.78177555  0.27114089     0.74200
N1032       N  0.31970503  0.75290071  0.31006068    -0.25700
Co1033     Co  0.28023583  0.71466809  0.30907783     0.74100
C1034       C  0.35920171  0.63732616  0.31593114     0.42900
N1035       N  0.32140331  0.65638641  0.24385701     0.01400
N1036       N  0.31796976  0.67416820  0.30822908     0.01500
N1037       N  0.22020686  0.80584381  0.29843425    -0.46500
H1038       H  0.35178873  0.82988722  0.25411125     0.07200
N1039       N  0.32056579  0.77840347  0.29554752     0.01700
N1040       N  0.24046161  0.67676426  0.30639326     0.01500
C1041       C  0.19426760  0.64478212  0.31155297     0.43100
N1042       N  0.32137576  0.68224591  0.22959399    -0.25100
C1043       C  0.21833718  0.80616676  0.24340031    -0.06000
N1044       N  0.34491601  0.76878828  0.21631184    -0.46200
N1045       N  0.21303130  0.67223983  0.31943838    -0.46500
C1046       C  0.20160893  0.79489882  0.22329382     0.42900
N1047       N  0.24334743  0.78039689  0.29463366     0.01700
N1048       N  0.24466805  0.68126577  0.22811577    -0.25100
N1049       N  0.32155147  0.78289339  0.24757079    -0.25600
N1050       N  0.24386072  0.65637405  0.24296933     0.01400
H1051       H  0.21567815  0.68834531  0.19831067     0.07300
H1052       H  0.20699153  0.61049591  0.28187295     0.07300
N1053       N  0.24301608  0.75550531  0.30952493    -0.25700
N1054       N  0.31865177  0.65216139  0.29181455    -0.25300
N1055       N  0.24438216  0.76000439  0.23079291     0.01700
C1056       C  0.36415621  0.78962493  0.31662927     0.43100
C1057       C  0.34822172  0.67773037  0.21590319    -0.06600
N1058       N  0.24120477  0.65361680  0.29054686    -0.25300
H1059       H  0.34953067  0.60589297  0.28487587     0.07300
N1060       N  0.34674105  0.80090548  0.29889412    -0.46500
H1061       H  0.35422773  0.69480484  0.20241999     0.07300
C1062       C  0.20346393  0.64114626  0.22060861     0.43000
C1063       C  0.34696977  0.80692703  0.24423588    -0.06000
Co1064     Co  0.28288261  0.72106548  0.22952576     0.73800
N1065       N  0.34746900  0.63355840  0.24052731    -0.46200
C1066       C  0.20344311  0.79717923  0.31685359     0.43200
N1067       N  0.21928494  0.76622276  0.21631720    -0.46200
Co1068     Co  0.28138469  0.65391610  0.26731752     0.73900
C1069       C  0.21311289  0.63222953  0.29246990    -0.06600
C1070       C  0.34626582  0.75773209  0.32414463    -0.06100
N1071       N  0.24450184  0.78307606  0.24668493    -0.25600
N1072       N  0.34136434  0.66569751  0.32340737    -0.46400
H1073       H  0.21352911  0.74955402  0.33916253     0.07200
C1074       C  0.22024417  0.67366755  0.21301322    -0.06500
Cl1075     Cl  0.28175955  0.71787277  0.26927364    -0.49500
C1076       C  0.36552511  0.64545592  0.22311380     0.43000
H1077       H  0.21268674  0.82855615  0.25356025     0.07200
N1078       N  0.21980417  0.63190719  0.23905536    -0.46200
C1079       C  0.26561672  0.95235744  0.49850307     0.02700
C1080       C  0.29668374  0.97381203  0.49789245     0.02600
C1081       C  0.31111823  0.98624406  0.51737187    -0.17900
C1082       C  0.29633801  0.97721458  0.53728089     0.02700
C1083       C  0.26634502  0.95516759  0.53799498     0.02600
C1084       C  0.25091574  0.94377125  0.51871658    -0.17900
H1085       H  0.22729084  0.92753080  0.51956100     0.04700
H1086       H  0.33432307  0.50310990  0.51705802     0.04700
C1087       C  0.01731026  0.71144088  0.03703390     0.02700
C1088       C  0.04450466  0.73701896  0.03642435     0.02600
C1089       C  0.05619394  0.74987927  0.01651378    -0.17900
C1090       C  0.04192566  0.73698760  0.99725227     0.02700
C1091       C  0.01508855  0.71115012  0.99779633     0.02600
C1092       C  0.50295768  0.69853798  0.01771902    -0.17900
H1093       H  0.48230903  0.67867351  0.01821061     0.04700
H1094       H  0.07673305  0.76986410  0.01599738     0.04700
C1095       C  0.02943728  0.74491015  0.50084045     0.02700
C1096       C  0.04819403  0.71240711  0.50121561     0.02600
C1097       C  0.05727196  0.69743443  0.52122757    -0.17900
C1098       C  0.04603220  0.71256343  0.54066799     0.02700
C1099       C  0.02530237  0.74348026  0.54011210     0.02600
C1100       C  0.01791919  0.75968096  0.52033113    -0.17900
H1101       H  0.50217329  0.78355483  0.52007285     0.04700
H1102       H  0.07263992  0.67333135  0.52172943     0.04700
C1103       C  0.28420683  0.94749990  0.03963020     0.02700
C1104       C  0.25774757  0.97378750  0.04005180     0.02600
C1105       C  0.24385068  0.98687295  0.02068495    -0.17900
C1106       C  0.25615226  0.97474620  0.00075071     0.02700
C1107       C  0.28395795  0.94965891  0.00026983     0.02600
C1108       C  0.29715977  0.93589144  0.01970335    -0.17900
H1109       H  0.31811814  0.91635919  0.01933687     0.04700
H1110       H  0.22326544  0.50677953  0.02115057     0.04700
C1111       C  0.37559483  0.87214643  0.85597613     0.03500
C1112       C  0.35962871  0.84445204  0.84467708    -0.12600
C1113       C  0.37134236  0.83543114  0.82398497     0.01000
C1114       C  0.39918113  0.85447772  0.81462369    -0.11200
C1115       C  0.41510178  0.88257089  0.82564425     0.03500
C1116       C  0.40287708  0.89161829  0.84625082    -0.10600
H1117       H  0.33841097  0.82964706  0.85221901     0.09100
H1118       H  0.40843711  0.84759232  0.79867535     0.06600
H1119       H  0.41485410  0.91323554  0.85498121     0.06500
C1120       C  0.41766114  0.61170583  0.85951904     0.03500
C1121       C  0.43535943  0.58392123  0.84920202    -0.12600
C1122       C  0.42738060  0.57572508  0.82769663     0.01000
C1123       C  0.40096846  0.59466782  0.81685870    -0.11200
C1124       C  0.38251422  0.62170905  0.82718284     0.03500
C1125       C  0.39051393  0.62986433  0.84867586    -0.10600
H1126       H  0.45737960  0.57103161  0.85720894     0.09100
H1127       H  0.39583845  0.58938758  0.79996614     0.06600
H1128       H  0.37796267  0.65225368  0.85632117     0.06500
C1129       C  0.18024208  0.57012256  0.85646967     0.03500
C1130       C  0.15330916  0.55268938  0.84504396    -0.12600
C1131       C  0.14354661  0.56399332  0.82429115     0.01000
C1132       C  0.16171196  0.59236344  0.81483350    -0.11200
C1133       C  0.18920089  0.60951665  0.82586588     0.03500
C1134       C  0.19843730  0.59814578  0.84668155    -0.10600
H1135       H  0.13950954  0.53085957  0.85258470     0.09100
H1136       H  0.15455411  0.60119799  0.79880952     0.06600
H1137       H  0.21917060  0.61149098  0.85557152     0.06500
C1138       C  0.13987518  0.83454894  0.85919905     0.03500
C1139       C  0.12265398  0.86221168  0.84853755    -0.12600
C1140       C  0.13081643  0.86998358  0.82703810     0.01000
C1141       C  0.15691216  0.85026137  0.81637168    -0.11200
C1142       C  0.17584063  0.82389536  0.82738682     0.03500
C1143       C  0.16729751  0.81622596  0.84889381    -0.10600
H1144       H  0.10087844  0.87562738  0.85640393     0.09100
H1145       H  0.16213962  0.85509470  0.79943643     0.06600
H1146       H  0.17991096  0.79425084  0.85702728     0.06500
C1147       C  0.14435325  0.60636826  0.67722124     0.03500
C1148       C  0.17065546  0.62523191  0.68835990    -0.12600
C1149       C  0.17747506  0.61796657  0.71016737     0.01000
C1150       C  0.15822864  0.59136376  0.72064308    -0.11200
C1151       C  0.13302622  0.57144594  0.70940492     0.03500
C1152       C  0.12656444  0.57865455  0.68761930    -0.10600
H1153       H  0.18341122  0.64751882  0.68063465     0.09100
H1154       H  0.16208627  0.58684431  0.73775136     0.06600
H1155       H  0.10542052  0.56493989  0.67927775     0.06500
C1156       C  0.37778672  0.57224613  0.68002224     0.03500
C1157       C  0.40536770  0.55478106  0.69065332    -0.12600
C1158       C  0.41669767  0.56571500  0.71115839     0.01000
C1159       C  0.39980278  0.59446491  0.72102665    -0.11200
C1160       C  0.37141456  0.61161401  0.71067873     0.03500
C1161       C  0.36060132  0.60024284  0.69016495    -0.10600
H1162       H  0.41811345  0.53293096  0.68262803     0.09100
H1163       H  0.40832153  0.60308040  0.73684771     0.06600
H1164       H  0.33919626  0.61337923  0.68176071     0.06500
C1165       C  0.35479633  0.80583026  0.81242033     0.42800
N1166       N  0.32075971  0.76221290  0.80552094     0.01700
C1167       C  0.32020001  0.65817947  0.71391652    -0.06100
H1168       H  0.30726830  0.78983426  0.69744222     0.07200
C1169       C  0.19041597  0.78624956  0.74359599    -0.06500
Co1170     Co  0.34345097  0.72336433  0.76590368     0.74200
N1171       N  0.31525640  0.76067425  0.72705470    -0.25700
Co1172     Co  0.27560752  0.72229033  0.72835073     0.74100
C1173       C  0.20213708  0.80414205  0.72397968     0.42900
N1174       N  0.21639582  0.76016055  0.79383006     0.01400
N1175       N  0.23626368  0.76031760  0.73020819     0.01500
N1176       N  0.36446353  0.65898863  0.73862622    -0.46500
H1177       H  0.38914466  0.79491986  0.78239302     0.07200
N1178       N  0.34048992  0.76151453  0.74178756     0.01700
N1179       N  0.23625330  0.68358493  0.73018884     0.01500
C1180       C  0.20017694  0.64158505  0.72293666     0.43100
N1181       N  0.24160846  0.76051748  0.80857433    -0.25100
C1182       C  0.36930639  0.66026038  0.79351923    -0.06000
N1183       N  0.32634881  0.78775589  0.81957092    -0.46200
N1184       N  0.22840150  0.65971277  0.71535066    -0.46500
C1185       C  0.35971448  0.64496498  0.81426035     0.42900
N1186       N  0.34111914  0.68443706  0.74211548     0.01700
N1187       N  0.24401585  0.68408021  0.80884159    -0.25100
N1188       N  0.34406233  0.76214440  0.78966179    -0.25600
N1189       N  0.21824530  0.68308447  0.79446253     0.01400
H1190       H  0.25630536  0.65236370  0.83673157     0.07300
H1191       H  0.16786010  0.65155561  0.75370845     0.07300
N1192       N  0.31512440  0.68444185  0.72786431    -0.25700
N1193       N  0.21314327  0.75960299  0.74614734    -0.25300
N1194       N  0.32278922  0.68581790  0.80644510     0.01700
C1195       C  0.35494220  0.80223081  0.71944590     0.43100
C1196       C  0.23369247  0.78532161  0.82322506    -0.06600
N1197       N  0.21398058  0.68296934  0.74655998    -0.25300
H1198       H  0.16845416  0.79195389  0.75418701     0.07300
N1199       N  0.36475764  0.78582218  0.73779559    -0.46500
H1200       H  0.24851235  0.79074510  0.83777783     0.07300
C1201       C  0.20742043  0.63975809  0.81572520     0.43000
C1202       C  0.36670026  0.78891389  0.79257712    -0.06000
Co1203     Co  0.28240216  0.72322706  0.80780255     0.73800
N1204       N  0.19131848  0.78376028  0.79745809    -0.46200
C1205       C  0.35289895  0.64129629  0.72108220     0.43200
N1206       N  0.33102824  0.66246537  0.82157040    -0.46200
Co1207     Co  0.21477481  0.72136663  0.77025905     0.73900
C1208       C  0.19048603  0.65704147  0.74355120    -0.06600
C1209       C  0.32233814  0.78526635  0.71202299    -0.06100
N1210       N  0.34522309  0.68551318  0.79013868    -0.25600
N1211       N  0.23062825  0.78653789  0.71649912    -0.46400
H1212       H  0.30324326  0.65223710  0.70034753     0.07200
C1213       C  0.23945909  0.65776807  0.82300633    -0.06500
Cl1214     Cl  0.27907955  0.72255448  0.76807970    -0.49500
C1215       C  0.20058305  0.80107230  0.81553548     0.43000
H1216       H  0.39211164  0.65505332  0.78348312     0.07200
N1217       N  0.19570047  0.65696352  0.79800303    -0.46200
C1218       C  0.41523604  0.83806167  0.67606955     0.03500
C1219       C  0.38733007  0.81960393  0.68596620    -0.12600
C1220       C  0.37870879  0.82616170  0.70758481     0.01000
C1221       C  0.39746987  0.85194817  0.71902903    -0.11200
C1222       C  0.42438891  0.87157187  0.70907769     0.03500
C1223       C  0.43293891  0.86480740  0.68744998    -0.10600
H1224       H  0.37472143  0.79801287  0.67750943     0.09100
H1225       H  0.39189555  0.85590987  0.73599331     0.06600
H1226       H  0.45536154  0.87802476  0.68009300     0.06500
C1227       C  0.18287460  0.87829490  0.68455788     0.03500
C1228       C  0.15397772  0.89446939  0.69468981    -0.12600
C1229       C  0.14107391  0.88135405  0.71428102     0.01000
C1230       C  0.15754071  0.85219753  0.72379184    -0.11200
C1231       C  0.18621116  0.83553034  0.71381834     0.03500
C1232       C  0.19883772  0.84867007  0.69409768    -0.10600
H1233       H  0.14133449  0.91695082  0.68710506     0.09100
H1234       H  0.14779784  0.84226664  0.73898048     0.06600
H1235       H  0.22064621  0.83572075  0.68599400     0.06500
C1236       C  0.44708108  0.89457842  0.72237662     0.42800
N1237       N  0.48856431  0.93099322  0.73040874     0.01700
C1238       C  0.09266323  0.92758854  0.82292106    -0.06100
H1239       H  0.45801715  0.94925129  0.83719178     0.07200
C1240       C  0.46598037  0.56219833  0.79435305    -0.06500
Co1241     Co  0.02671181  0.90908279  0.77051158     0.74200
N1242       N  0.48986750  0.93770280  0.80925945    -0.25700
Co1243     Co  0.02947101  0.97576348  0.80849288     0.74100
C1244       C  0.45069879  0.55271078  0.81507535     0.42900
N1245       N  0.48963894  0.53505604  0.74307614     0.01400
N1246       N  0.49188778  0.51609023  0.80746131     0.01500
N1247       N  0.09019184  0.88558231  0.79722994    -0.46500
H1248       H  0.45690716  0.86196414  0.75308668     0.07200
N1249       N  0.48861151  0.91252085  0.79464909     0.01700
N1250       N  0.06900038  0.51380697  0.80636145     0.01500
C1251       C  0.11365867  0.54710522  0.81283668     0.43100
N1252       N  0.48959184  0.50940009  0.72875949    -0.25100
C1253       C  0.09179487  0.88513696  0.74402786    -0.06000
N1254       N  0.46516121  0.92303703  0.71518714    -0.46200
N1255       N  0.09533118  0.51893852  0.82014735    -0.46500
C1256       C  0.10991084  0.89727991  0.72462007     0.42900
N1257       N  0.06604349  0.91030408  0.79398107     0.01700
N1258       N  0.06637894  0.50921792  0.72819326    -0.25100
N1259       N  0.48785061  0.90856746  0.74668089    -0.25600
N1260       N  0.06725349  0.53414196  0.74294738     0.01400
H1261       H  0.09670011  0.50075929  0.69913648     0.07300
H1262       H  0.10189135  0.58156798  0.78295723     0.07300
N1263       N  0.06687872  0.93524155  0.80873397    -0.25700
N1264       N  0.49141316  0.53838422  0.79110949    -0.25300
N1265       N  0.06572996  0.93094809  0.73074672     0.01700
C1266       C  0.44504362  0.90141633  0.81566637     0.44700
C1267       C  0.46310897  0.51453328  0.71481477    -0.06600
N1268       N  0.06861498  0.53715051  0.79055851    -0.25300
H1269       H  0.46065574  0.58480593  0.78421167     0.07300
N1270       N  0.46225247  0.89019652  0.79791739    -0.46500
H1271       H  0.45716249  0.49779585  0.70121267     0.07300
C1272       C  0.10928592  0.54776210  0.72133466     0.43000
C1273       C  0.46217728  0.88488648  0.74320388    -0.06000
Co1274     Co  0.02758536  0.97010291  0.72904488     0.73800
N1275       N  0.46400555  0.55830930  0.73955918    -0.46200
C1276       C  0.10846906  0.89491404  0.81498617     0.43200
N1277       N  0.09221596  0.92569795  0.71716447    -0.46200
Co1278     Co  0.02911710  0.53694056  0.76690191     0.73900
C1279       C  0.09592185  0.55929458  0.79322481    -0.06600
C1280       C  0.46335219  0.93291635  0.82332121    -0.06100
N1281       N  0.06495213  0.90763327  0.74653164    -0.25600
N1282       N  0.46841135  0.52425038  0.82255247    -0.46400
H1283       H  0.09878769  0.94236370  0.83733699     0.07200
C1284       C  0.09178839  0.51581991  0.71359971    -0.06500
Cl1285     Cl  0.02812261  0.97298851  0.76874276    -0.49500
C1286       C  0.44612666  0.54695520  0.72196436     0.43000
H1287       H  0.09755517  0.86314455  0.75455612     0.07200
N1288       N  0.09231591  0.55779062  0.73938665    -0.46200
C1289       C  0.21239038  0.48486273  0.94566219    -0.22100
C1290       C  0.21833804  0.52070431  0.94159318     0.09900
C1291       C  0.23369060  0.54197263  0.95768635     0.10300
C1292       C  0.24478825  0.52637802  0.97707797    -0.17000
C1293       C  0.24066686  0.99002206  0.98074726    -0.27400
C1294       C  0.22265725  0.96934784  0.96522833     0.18600
C1295       C  0.20926884  0.53500327  0.92006868     0.12600
C1296       C  0.23857107  0.58097860  0.95429997    -0.11800
H1297       H  0.25773213  0.54240176  0.98920183     0.12900
C1298       C  0.21297348  0.93130174  0.96895150    -0.22600
H1299       H  0.19966846  0.96884039  0.93342098     0.08500
C1300       C  0.23430657  0.53507708  0.90320245     0.04800
C1301       C  0.22407942  0.54680756  0.88265376    -0.19800
C1302       C  0.18956072  0.55904677  0.87869455    -0.12100
C1303       C  0.16493138  0.56038824  0.89591916     0.13600
C1304       C  0.17498739  0.54774686  0.91630984    -0.22600
C1305       C  0.27178443  0.02281483  0.90696583    -0.05600
H1306       H  0.24304950  0.54624784  0.86954272     0.15100
C1307       C  0.12832305  0.57589386  0.89362919    -0.15800
H1308       H  0.15605556  0.54815330  0.92945163     0.09400
H1309       H  0.22598165  0.91459612  0.95661335     0.07300
H1310       H  0.18381188  0.92811620  0.96747385     0.08500
H1311       H  0.22067590  0.92168014  0.98516593     0.07500
H1312       H  0.21240288  0.59352993  0.95145519     0.02400
H1313       H  0.25584842  0.58585648  0.94014922     0.02900
H1314       H  0.25095116  0.59372198  0.96854070     0.06400
H1315       H  0.28771243  0.02348869  0.89192984     0.05400
H1316       H  0.27168085  0.99548633  0.91319258    -0.00400
H1317       H  0.28492412  0.03998447  0.91901317     0.01100
H1318       H  0.10816291  0.55521959  0.89682915     0.04700
H1319       H  0.12321064  0.58732254  0.87749004     0.06700
H1320       H  0.12493498  0.59742820  0.90553542     0.07500
C1321       C  0.32929073  0.94717413  0.94553114    -0.22100
C1322       C  0.32438269  0.91180846  0.93994388     0.09900
C1323       C  0.30846383  0.88839657  0.95470593     0.10300
C1324       C  0.29598697  0.90144922  0.97440930    -0.17000
C1325       C  0.29961437  0.93722074  0.97973568    -0.27400
C1326       C  0.31790745  0.96004920  0.96548062     0.18600
C1327       C  0.33672260  0.89997250  0.91860577     0.12600
C1328       C  0.30495778  0.84973108  0.94971912    -0.11800
H1329       H  0.28280687  0.88381088  0.98560360     0.12900
C1330       C  0.32713793  0.49759515  0.97101405    -0.22600
H1331       H  0.34254476  0.96476197  0.93432276     0.08500
C1332       C  0.31387016  0.89985650  0.90060998     0.04800
C1333       C  0.32741160  0.89065182  0.88038194    -0.19800
C1334       C  0.36307125  0.88098682  0.87785640    -0.12100
C1335       C  0.38560326  0.87979234  0.89612730     0.13600
C1336       C  0.37221242  0.88998073  0.91622493    -0.22600
C1337       C  0.27532196  0.90958551  0.90273727    -0.05600
H1338       H  0.31014693  0.89117320  0.86639704     0.15100
C1339       C  0.42338956  0.86693035  0.89525011    -0.15800
H1340       H  0.38947048  0.88975848  0.93022213     0.09400
H1341       H  0.31441686  0.51570988  0.95925205     0.07300
H1342       H  0.35631063  0.50117216  0.97010031     0.08500
H1343       H  0.31884565  0.50510526  0.98749125     0.07500
H1344       H  0.33164740  0.83821306  0.94711006     0.02400
H1345       H  0.28878839  0.84592844  0.93497178     0.02900
H1346       H  0.29203871  0.83511577  0.96310693     0.06400
H1347       H  0.26143142  0.90901026  0.88694800     0.05400
H1348       H  0.27291219  0.93643490  0.90944088    -0.00400
H1349       H  0.26173406  0.89087331  0.91371689     0.01100
H1350       H  0.44161031  0.88864389  0.89983157     0.04700
H1351       H  0.43121163  0.85703518  0.87917894     0.06700
H1352       H  0.42685390  0.84481891  0.90681896     0.07500
C1353       C  0.13524688  0.63842263  0.61921672    -0.22100
C1354       C  0.10027503  0.65098276  0.61940647     0.09900
C1355       C  0.07987751  0.64809414  0.63833888     0.10300
C1356       C  0.09498915  0.63270764  0.65671321    -0.17000
C1357       C  0.13007141  0.62026868  0.65666742    -0.27400
C1358       C  0.15048645  0.62305087  0.63763437     0.18600
C1359       C  0.08560215  0.66735188  0.59964257     0.12600
C1360       C  0.04248873  0.66194856  0.63928204    -0.11800
H1361       H  0.07953686  0.63097838  0.67141161     0.12900
C1362       C  0.18794617  0.60956327  0.63604458    -0.22600
H1363       H  0.15074011  0.64061950  0.60455790     0.08500
C1364       C  0.09395131  0.70232870  0.59388698     0.04800
C1365       C  0.08016500  0.71642597  0.57472349    -0.19800
C1366       C  0.05768597  0.69658387  0.56137686    -0.12100
C1367       C  0.04856224  0.66176895  0.56751345     0.13600
C1368       C  0.06289854  0.64754068  0.58651237    -0.22600
C1369       C  0.11722711  0.72478681  0.60803317    -0.05600
H1370       H  0.08742797  0.74292113  0.56992805     0.15100
C1371       C  0.02350352  0.63903279  0.55469833    -0.15800
H1372       H  0.05623845  0.62079759  0.59117731     0.09400
H1373       H  0.20610015  0.63179906  0.63233780     0.07300
H1374       H  0.18965608  0.58988542  0.62287125     0.08500
H1375       H  0.19722643  0.59659116  0.65103410     0.07500
H1376       H  0.02567583  0.64793827  0.62737275     0.02400
H1377       H  0.04236355  0.69058209  0.63556849     0.02900
H1378       H  0.03054894  0.65813673  0.65547996     0.06400
H1379       H  0.12065035  0.75172371  0.60131338     0.05400
H1380       H  0.14383894  0.71259903  0.60958964    -0.00400
H1381       H  0.10511832  0.72718605  0.62426644     0.01100
H1382       H  0.03764329  0.61512101  0.54907952     0.04700
H1383       H  0.01221120  0.65263758  0.54046801     0.06700
H1384       H  0.50104751  0.63086343  0.56509467     0.07500
C1385       C  0.46098172  0.75767458  0.58635005    -0.22100
C1386       C  0.47661558  0.78634403  0.59689054     0.09900
C1387       C  0.50846722  0.80081248  0.58885933     0.10300
C1388       C  0.52376641  0.78650064  0.57020519    -0.17000
C1389       C  0.00825704  0.75761712  0.55975752    -0.27400
C1390       C  0.47633615  0.74315228  0.56781851     0.18600
C1391       C  0.45998731  0.79982031  0.61686020     0.12600
C1392       C  0.52631855  0.83116546  0.60007965    -0.11800
H1393       H  0.04808706  0.79761376  0.56385891     0.12900
C1394       C  0.45753588  0.71275623  0.55716025    -0.22600
H1395       H  0.43661276  0.74654235  0.59265137     0.08500
C1396       C  0.43314199  0.82573509  0.61642451     0.04800
C1397       C  0.41886136  0.83799711  0.63596818    -0.19800
C1398       C  0.43062828  0.82449548  0.65579846    -0.12100
C1399       C  0.45702482  0.79796598  0.65610692     0.13600
C1400       C  0.47141457  0.78610653  0.63662787    -0.22600
C1401       C  0.41965621  0.84028647  0.59535904    -0.05600
H1402       H  0.39845304  0.85808092  0.63580149     0.15100
C1403       C  0.47065060  0.78147596  0.67665028    -0.15800
H1404       H  0.99165343  0.76588766  0.63683072     0.09400
H1405       H  0.43020873  0.72085644  0.55272167     0.07300
H1406       H  0.95601056  0.69026610  0.56855988     0.08500
H1407       H  0.97076424  0.70365724  0.54227447     0.07500
H1408       H  0.53343205  0.82339986  0.61679675     0.02400
H1409       H  0.50812209  0.85411408  0.60059539     0.02900
H1410       H  0.55096741  0.83936812  0.59167312     0.06400
H1411       H  0.39869563  0.86040231  0.59784861     0.05400
H1412       H  0.40828594  0.81864871  0.58551743    -0.00400
H1413       H  0.44176218  0.85276919  0.58634419     0.01100
H1414       H  0.96532083  0.75257499  0.67627118     0.04700
H1415       H  0.45806673  0.79219897  0.69135558     0.06700
H1416       H  0.99949772  0.78579463  0.67795331     0.07500
C1417       C  0.08468362  0.78271960  0.89916027    -0.22100
C1418       C  0.09667765  0.79664881  0.91870425     0.09900
C1419       C  0.12285133  0.82323494  0.91876747     0.10300
C1420       C  0.13669991  0.83522860  0.89907567    -0.17000
C1421       C  0.12495043  0.82099443  0.87951022    -0.27400
C1422       C  0.09840809  0.79459798  0.87950387     0.18600
C1423       C  0.08223679  0.78191101  0.93889423     0.12600
C1424       C  0.13595529  0.83892348  0.93957633    -0.11800
H1425       H  0.15676621  0.85568367  0.89890800     0.12900
C1426       C  0.08389873  0.77840579  0.85913547    -0.22600
H1427       H  0.06457223  0.76227229  0.89927277     0.08500
C1428       C  0.04942697  0.79315464  0.94729155     0.04800
C1429       C  0.03651390  0.77751636  0.96621502    -0.19800
C1430       C  0.05575257  0.75098002  0.97674994    -0.12100
C1431       C  0.08851603  0.73961376  0.96825228     0.13600
C1432       C  0.10135427  0.75528114  0.94936739    -0.22600
C1433       C  0.02840783  0.82190097  0.93645137    -0.05600
H1434       H  0.01159695  0.78629032  0.97299859     0.15100
C1435       C  0.11046505  0.71101875  0.97860436    -0.15800
H1436       H  0.12641185  0.74660672  0.94269890     0.09400
H1437       H  0.05488433  0.78310432  0.85823619     0.07300
H1438       H  0.08875384  0.74955688  0.85936766     0.08500
H1439       H  0.09600635  0.78927118  0.84428079     0.07500
H1440       H  0.14812502  0.81807048  0.94973728     0.02400
H1441       H  0.11345169  0.85092303  0.94842458     0.02900
H1442       H  0.15618348  0.85969801  0.93673063     0.06400
H1443       H  0.00353422  0.82776607  0.94530224     0.05400
H1444       H  0.02123472  0.81376709  0.91983729    -0.00400
H1445       H  0.04446730  0.84639681  0.93571897     0.01100
H1446       H  0.11461225  0.68935811  0.96688304     0.04700
H1447       H  0.09788036  0.69949893  0.99312913     0.06700
H1448       H  0.13664115  0.72191209  0.98336370     0.07500
C1449       C  0.46797313  0.66809496  0.89968738    -0.22100
C1450       C  0.45787401  0.65260149  0.91923025     0.09900
C1451       C  0.43441687  0.62359990  0.91920204     0.10300
C1452       C  0.42174978  0.61048829  0.89946784    -0.17000
C1453       C  0.43187687  0.62601044  0.87989168    -0.27400
C1454       C  0.45538946  0.65513151  0.87998238     0.18600
C1455       C  0.47259206  0.66708478  0.93949360     0.12600
C1456       C  0.42274682  0.60668336  0.93999041    -0.11800
H1457       H  0.40375332  0.58821490  0.89928654     0.12900
C1458       C  0.46809690  0.67294964  0.85964515    -0.22600
H1459       H  0.48606003  0.69032508  0.89981818     0.08500
C1460       C  0.50515729  0.65502610  0.94792951     0.04800
C1461       C  0.01830045  0.66979501  0.96706538    -0.19800
C1462       C  0.49975304  0.69659204  0.97772589    -0.12100
C1463       C  0.46740351  0.70906463  0.96907544     0.13600
C1464       C  0.45415614  0.69401813  0.95006133    -0.22600
C1465       C  0.02610167  0.62680721  0.93663571    -0.05600
H1466       H  0.04318703  0.66052454  0.97372306     0.15100
C1467       C  0.44650551  0.73842359  0.97929714    -0.15800
H1468       H  0.42937942  0.70349181  0.94334523     0.09400
H1469       H  0.49747936  0.67174278  0.85893820     0.07300
H1470       H  0.45978488  0.70100443  0.85974529     0.08500
H1471       H  0.45768216  0.66067853  0.84474665     0.07500
H1472       H  0.40884350  0.62639216  0.95010695     0.02400
H1473       H  0.44615843  0.59656696  0.94890491     0.02900
H1474       H  0.40437360  0.58429962  0.93711761     0.06400
H1475       H  0.05095565  0.62039083  0.94541464     0.05400
H1476       H  0.03330019  0.63587332  0.92018571    -0.00400
H1477       H  0.01002852  0.60239197  0.93541069     0.01100
H1478       H  0.44381906  0.76052926  0.96765134     0.04700
H1479       H  0.45910084  0.74891039  0.99409845     0.06700
H1480       H  0.41967132  0.72870608  0.98361436     0.07500
C1481       C  0.34186639  0.48638084  0.59166645    -0.22100
C1482       C  0.33327405  0.52125699  0.59678247     0.09900
C1483       C  0.31496384  0.54231727  0.58169380     0.10300
C1484       C  0.30421680  0.52741969  0.56208008    -0.17000
C1485       C  0.31172242  0.99223018  0.55720961    -0.27400
C1486       C  0.33188496  0.97176646  0.57182177     0.18600
C1487       C  0.34391290  0.53517371  0.61803978     0.12600
C1488       C  0.30678828  0.58038678  0.58633714    -0.11800
H1489       H  0.28876893  0.04307470  0.55080466     0.12900
C1490       C  0.34344494  0.93466362  0.56698662    -0.22600
H1491       H  0.35659345  0.47057213  0.60318451     0.08500
C1492       C  0.32103264  0.53321084  0.63596362     0.04800
C1493       C  0.33258511  0.54614058  0.65593031    -0.19800
C1494       C  0.36652817  0.56078284  0.65832026    -0.12100
C1495       C  0.38916099  0.56335025  0.64019113     0.13600
C1496       C  0.37761419  0.55016142  0.62030384    -0.22600
C1497       C  0.28496478  0.01623016  0.63413250    -0.05600
H1498       H  0.31531655  0.54430709  0.66984703     0.15100
C1499       C  0.42517343  0.58054806  0.64106227    -0.15800
H1500       H  0.39491920  0.55182620  0.60638668     0.09400
H1501       H  0.33203765  0.91641375  0.57914956     0.07300
H1502       H  0.37249618  0.43269893  0.56805497     0.08500
H1503       H  0.33526027  0.92578433  0.55072934     0.07500
H1504       H  0.33185793  0.59507476  0.58903326     0.02400
H1505       H  0.29001139  0.58244677  0.60095165     0.02900
H1506       H  0.29244126  0.59309443  0.57274952     0.06400
H1507       H  0.27066006  0.01618869  0.64976903     0.05400
H1508       H  0.28754490  0.98854190  0.62863979    -0.00400
H1509       H  0.26877822  0.03114483  0.62228694     0.01100
H1510       H  0.44586997  0.56085184  0.63705927     0.04700
H1511       H  0.43146504  0.59201649  0.65700937     0.06700
H1512       H  0.42630309  0.60229853  0.62907638     0.07500
C1513       C  0.24079988  0.89852286  0.58618343    -0.22100
C1514       C  0.22496250  0.92355058  0.59957737     0.09900
C1515       C  0.22129393  0.95866000  0.59244187     0.10300
C1516       C  0.23445411  0.96813931  0.57209576    -0.17000
C1517       C  0.25110727  0.94325839  0.55880304    -0.27400
C1518       C  0.25391223  0.90781994  0.56584487     0.18600
C1519       C  0.21361032  0.91255170  0.62134226     0.12600
C1520       C  0.20355756  0.98594693  0.60632640    -0.11800
H1521       H  0.23198915  0.99515100  0.56655188     0.12900
C1522       C  0.27135499  0.87929864  0.55271464    -0.22600
H1523       H  0.24344292  0.87154554  0.59182102     0.08500
C1524       C  0.17925298  0.89942677  0.62518915     0.04800
C1525       C  0.16996597  0.88892902  0.64609772    -0.19800
C1526       C  0.19440740  0.89086977  0.66313952    -0.12100
C1527       C  0.22885940  0.90422053  0.65926056     0.13600
C1528       C  0.23806247  0.91469011  0.63831176    -0.22600
C1529       C  0.15264867  0.89601337  0.60719086    -0.05600
H1530       H  0.14364253  0.87858743  0.64913706     0.15100
C1531       C  0.25621220  0.90864066  0.67678535    -0.15800
H1532       H  0.26445487  0.92480379  0.63518916     0.09400
H1533       H  0.25165428  0.85840752  0.54904920     0.07300
H1534       H  0.29342116  0.86746409  0.56211491     0.08500
H1535       H  0.28253190  0.88887769  0.53729543     0.07500
H1536       H  0.21747940  0.98799267  0.62201978     0.02400
H1537       H  0.17560856  0.97830871  0.60933268     0.02900
H1538       H  0.20369187  0.01234495  0.59855784     0.06400
H1539       H  0.12703600  0.88513489  0.61300681     0.05400
H1540       H  0.16313480  0.87807071  0.59462238    -0.00400
H1541       H  0.14743430  0.92221101  0.59988988     0.01100
H1542       H  0.27952034  0.89178170  0.67324802     0.04700
H1543       H  0.24616146  0.90171246  0.69301267     0.06700
H1544       H  0.26493152  0.93657610  0.67734025     0.07500
C1545       C  0.22284308  0.53067209  0.13689694    -0.22100
C1546       C  0.20448429  0.53753027  0.11776077     0.09900
C1547       C  0.17384490  0.55885624  0.11809484     0.10300
C1548       C  0.16237420  0.57319685  0.13775432    -0.17000
C1549       C  0.18096039  0.56648194  0.15691691    -0.27400
C1550       C  0.21135943  0.54462177  0.15652663     0.18600
C1551       C  0.21799344  0.52167456  0.09766243     0.12600
C1552       C  0.15343661  0.56643029  0.09774186    -0.11800
H1553       H  0.13888078  0.58959087  0.13821577     0.12900
C1554       C  0.23198390  0.53479187  0.17649999    -0.22600
H1555       H  0.24615489  0.01400150  0.13651552     0.08500
C1556       C  0.24524846  0.53793635  0.08569872     0.04800
C1557       C  0.25800019  0.52138345  0.06709088    -0.19800
C1558       C  0.24440139  0.48878461  0.06042314    -0.12100
C1559       C  0.21724769  0.47238090  0.07250278     0.13600
C1560       C  0.20446289  0.48903465  0.09107866    -0.22600
C1561       C  0.26075398  0.57271597  0.09258040    -0.05600
H1562       H  0.27865973  0.53388777  0.05764545     0.15100
C1563       C  0.20082702  0.93771276  0.06612689    -0.15800
H1564       H  0.18373759  0.47654240  0.10047843     0.09400
H1565       H  0.25968127  0.54435580  0.17494039     0.07300
H1566       H  0.23231342  0.00567712  0.17827361     0.08500
H1567       H  0.22073061  0.54585421  0.19150014     0.07500
H1568       H  0.14369622  0.54138039  0.09067777     0.02400
H1569       H  0.17089627  0.57989688  0.08591594     0.02900
H1570       H  0.13019832  0.58364577  0.10082339     0.06400
H1571       H  0.28171437  0.58186053  0.08131994     0.05400
H1572       H  0.27272564  0.57009220  0.10885817    -0.00400
H1573       H  0.23961703  0.59302953  0.09304381     0.01100
H1574       H  0.20544116  0.91799750  0.07908004     0.04700
H1575       H  0.21175659  0.92712684  0.05091289     0.06700
H1576       H  0.17188680  0.44117877  0.06386185     0.07500
C1577       C  0.12827188  0.66368120  0.41169968    -0.22100
C1578       C  0.09588263  0.65163147  0.42016474     0.09900
C1579       C  0.07491392  0.62892265  0.40725379     0.10300
C1580       C  0.08500996  0.62234404  0.38592452    -0.17000
C1581       C  0.11876783  0.63176880  0.37804082    -0.27400
C1582       C  0.14157377  0.65095575  0.39206297     0.18600
C1583       C  0.08392130  0.66447777  0.44182814     0.12600
C1584       C  0.04280816  0.60933613  0.41551533    -0.11800
H1585       H  0.06653201  0.60812948  0.37581886     0.12900
C1586       C  0.18077325  0.65584246  0.38826813    -0.22600
H1587       H  0.14463361  0.68130344  0.42117010     0.08500
C1588       C  0.10683610  0.66690357  0.45998119     0.04800
C1589       C  0.09484173  0.68377750  0.47873193    -0.19800
C1590       C  0.05923445  0.69385643  0.48110201    -0.12100
C1591       C  0.03525403  0.68578104  0.46429706     0.13600
C1592       C  0.04851187  0.67527428  0.44429248    -0.22600
C1593       C  0.14329798  0.65069301  0.46077517    -0.05600
H1594       H  0.11326737  0.68805098  0.49189735     0.15100
C1595       C  0.99567322  0.68484000  0.46729434    -0.15800
H1596       H  0.03031937  0.67362221  0.43081442     0.09400
H1597       H  0.19555500  0.64946314  0.40327947     0.07300
H1598       H  0.18639147  0.68364302  0.38383257     0.08500
H1599       H  0.19145487  0.63771922  0.37593574     0.07500
H1600       H  0.01850226  0.61963684  0.40760678     0.02400
H1601       H  0.03988684  0.61072336  0.43324698     0.02900
H1602       H  0.04542747  0.58091251  0.41162100     0.06400
H1603       H  0.14554126  0.63375511  0.47533761     0.05400
H1604       H  0.16365003  0.67177635  0.46171522    -0.00400
H1605       H  0.14893443  0.63344360  0.44683843     0.01100
H1606       H  0.98268632  0.70269155  0.45553331     0.04700
H1607       H  0.98748097  0.69180559  0.48389100     0.06700
H1608       H  0.98600506  0.65767941  0.46419072     0.07500
C1609       C  0.33375225  0.53298460  0.40163137    -0.22100
C1610       C  0.35680614  0.53048611  0.41923869     0.09900
C1611       C  0.39195793  0.54282233  0.41729490     0.10300
C1612       C  0.40288297  0.55859245  0.39788098    -0.17000
C1613       C  0.37967397  0.56151905  0.38023546    -0.27400
C1614       C  0.34489691  0.54748024  0.38197325     0.18600
C1615       C  0.34296181  0.51582018  0.43971512     0.12600
C1616       C  0.41797242  0.53881484  0.43557032    -0.11800
H1617       H  0.42976040  0.56842771  0.39636806     0.12900
C1618       C  0.31924335  0.54563884  0.36332424    -0.22600
H1619       H  0.30694015  0.52291937  0.40314458     0.08500
C1620       C  0.32887483  0.53813613  0.45564415     0.04800
C1621       C  0.31481683  0.52336011  0.47447715    -0.19800
C1622       C  0.31342219  0.98673732  0.47761529    -0.12100
C1623       C  0.32838813  0.96434862  0.46182768     0.13600
C1624       C  0.34252776  0.97925534  0.44290853    -0.22600
C1625       C  0.32772054  0.57751104  0.45249669    -0.05600
H1626       H  0.30360881  0.54056445  0.48661032     0.15100
C1627       C  0.33094059  0.92501056  0.46463533    -0.15800
H1628       H  0.35359374  0.96223128  0.43063134     0.09400
H1629       H  0.29570618  0.56218870  0.36683482     0.07300
H1630       H  0.31043836  0.51795046  0.36112624     0.08500
H1631       H  0.33074756  0.55417134  0.34778068     0.07500
H1632       H  0.42113374  0.51046443  0.43957723     0.02400
H1633       H  0.40830559  0.55297084  0.45002775     0.02900
H1634       H  0.44444793  0.54957807  0.43131356     0.06400
H1635       H  0.31544256  0.59103405  0.46647278     0.05400
H1636       H  0.31186971  0.58392734  0.43792137    -0.00400
H1637       H  0.35493917  0.58805078  0.45046917     0.01100
H1638       H  0.31509653  0.91174621  0.45192434     0.04700
H1639       H  0.32146382  0.91592241  0.48059731     0.06700
H1640       H  0.35904356  0.91671849  0.46312060     0.07500
C1641       C  0.10883880  0.75837938  0.08188311    -0.22100
C1642       C  0.08652581  0.77651600  0.09605422     0.09900
C1643       C  0.05089186  0.78271311  0.09032190     0.10300
C1644       C  0.03828394  0.77040883  0.07047019    -0.17000
C1645       C  0.06024276  0.75128387  0.05649917    -0.27400
C1646       C  0.09607154  0.74524930  0.06224844     0.18600
C1647       C  0.10050844  0.78731074  0.11729772     0.12600
C1648       C  0.02605833  0.80169939  0.10532327    -0.11800
H1649       H  0.01095966  0.77519318  0.06594345     0.12900
C1650       C  0.12123303  0.72406122  0.04858156    -0.22600
H1651       H  0.13614247  0.75353524  0.08648828     0.08500
C1652       C  0.10211427  0.76329352  0.13464150     0.04800
C1653       C  0.11387203  0.77502823  0.15482243    -0.19800
C1654       C  0.12464317  0.81006371  0.15796578    -0.12100
C1655       C  0.12432999  0.83377765  0.14026422     0.13600
C1656       C  0.11174217  0.82213865  0.12021867    -0.22600
C1657       C  0.09113214  0.72540595  0.13185103    -0.05600
H1658       H  0.11430175  0.75684469  0.16833229     0.15100
C1659       C  0.13794011  0.87105764  0.14166704    -0.15800
H1660       H  0.11092652  0.84029269  0.10669033     0.09400
H1661       H  0.13184151  0.70173124  0.05821148     0.07300
H1662       H  0.14364668  0.74103770  0.04339052     0.08500
H1663       H  0.10864987  0.71275823  0.03403873     0.07500
H1664       H  0.03596075  0.82879657  0.10829469     0.02400
H1665       H  0.02439197  0.78734619  0.12089660     0.02900
H1666       H  0.99887858  0.80364311  0.09851730     0.06400
H1667       H  0.09290189  0.71040647  0.14720819     0.05400
H1668       H  0.10859579  0.71244869  0.11987579    -0.00400
H1669       H  0.06341952  0.72410354  0.12601635     0.01100
H1670       H  0.15902051  0.87509730  0.12942304     0.04700
H1671       H  0.14962053  0.87745454  0.15755924     0.06700
H1672       H  0.11595813  0.88974472  0.13835546     0.07500
C1673       C  0.45922335  0.69441411  0.08591682    -0.22100
C1674       C  0.48170789  0.67336935  0.09849139     0.09900
C1675       C  0.01568113  0.66440646  0.09070889     0.10300
C1676       C  0.02626117  0.67655704  0.07035257    -0.17000
C1677       C  0.50379821  0.69776764  0.05780420    -0.27400
C1678       C  0.47002082  0.70720037  0.06577412     0.18600
C1679       C  0.46906283  0.66089199  0.11973190     0.12600
C1680       C  0.04096819  0.64266211  0.10403431    -0.11800
H1681       H  0.05233758  0.66992984  0.06427686     0.12900
C1682       C  0.44524952  0.73165204  0.05390287    -0.22600
H1683       H  0.43322940  0.70131408  0.09201495     0.08500
C1684       C  0.46631640  0.68380584  0.13752436     0.04800
C1685       C  0.45514395  0.67031381  0.15744060    -0.19800
C1686       C  0.44578110  0.63469720  0.15983015    -0.12100
C1687       C  0.44700919  0.61215543  0.14167920     0.13600
C1688       C  0.45923333  0.62548657  0.12196283    -0.22600
C1689       C  0.47538202  0.72234447  0.13557300    -0.05600
H1690       H  0.45377034  0.68763341  0.17128580     0.15100
C1691       C  0.43441204  0.57444786  0.14216359    -0.15800
H1692       H  0.46050746  0.60826154  0.10806212     0.09400
H1693       H  0.43939650  0.75483474  0.06418450     0.07300
H1694       H  0.42007571  0.71768403  0.05031369     0.08500
H1695       H  0.45630650  0.74165154  0.03853344     0.07500
H1696       H  0.02950703  0.61619699  0.10710085     0.02400
H1697       H  0.04602143  0.65595711  0.11965857     0.02900
H1698       H  0.06680492  0.63903800  0.09576771     0.06400
H1699       H  0.47298573  0.73619287  0.15125234     0.05400
H1700       H  0.45720268  0.73535275  0.12396180    -0.00400
H1701       H  0.00296939  0.72535528  0.12981270     0.01100
H1702       H  0.41373212  0.57064662  0.12962474     0.04700
H1703       H  0.42249093  0.56666870  0.15775512     0.06700
H1704       H  0.45697747  0.55659154  0.13869152     0.07500
C1705       C  0.22255668  0.93844630  0.44310776    -0.22100
C1706       C  0.21254430  0.90271200  0.44428506     0.09900
C1707       C  0.22085605  0.88371179  0.46335566     0.10300
C1708       C  0.24083188  0.90013182  0.47956989    -0.17000
C1709       C  0.24845552  0.93645743  0.47901347    -0.27400
C1710       C  0.23700892  0.95615468  0.46090210     0.18600
C1711       C  0.19425137  0.88641019  0.42522346     0.12600
C1712       C  0.20737705  0.84705335  0.46806094    -0.11800
H1713       H  0.24860749  0.88473633  0.49354424     0.12900
C1714       C  0.23628926  0.99579644  0.46034626    -0.22600
H1715       H  0.21670861  0.95346457  0.42866568     0.08500
C1716       C  0.16708959  0.90408894  0.41369877     0.04800
C1717       C  0.15685981  0.89163726  0.39334501    -0.19800
C1718       C  0.16829675  0.85867808  0.38543541    -0.12100
C1719       C  0.18972314  0.83782043  0.39937884     0.13600
C1720       C  0.20541609  0.85340254  0.41755777    -0.22600
C1721       C  0.14753846  0.93563812  0.42244659    -0.05600
H1722       H  0.13972148  0.90839610  0.38387662     0.15100
C1723       C  0.19448738  0.79860801  0.39683294    -0.15800
H1724       H  0.22549371  0.83879394  0.42628947     0.09400
H1725       H  0.20899937  0.00484171  0.45653033     0.07300
H1726       H  0.25444119  0.00563796  0.44761027     0.08500
H1727       H  0.24330785  0.00769403  0.47605101     0.07500
H1728       H  0.22985923  0.82819403  0.46813307     0.02400
H1729       H  0.18688819  0.83809502  0.45652540     0.02900
H1730       H  0.19462273  0.84660194  0.48418673     0.06400
H1731       H  0.11856329  0.93055096  0.42176310     0.05400
H1732       H  0.15358379  0.95925349  0.41251471    -0.00400
H1733       H  0.15389398  0.94113921  0.43954686     0.01100
H1734       H  0.22253373  0.79250700  0.39294627     0.04700
H1735       H  0.17665220  0.78729334  0.38443907     0.06700
H1736       H  0.18752932  0.78525371  0.41221160     0.07500
C1737       C  0.31023725  0.88420546  0.08474263    -0.22100
C1738       C  0.33226905  0.90571847  0.09727327     0.09900
C1739       C  0.33813615  0.94099554  0.09100894     0.10300
C1740       C  0.32179182  0.95401068  0.07226470    -0.17000
C1741       C  0.29961898  0.93256433  0.05970154    -0.27400
C1742       C  0.29379464  0.89713974  0.06602159     0.18600
C1743       C  0.34772739  0.89117671  0.11739846     0.12600
C1744       C  0.36159659  0.96484270  0.10414391    -0.11800
H1745       H  0.32654854  0.98096985  0.06726016     0.12900
C1746       C  0.27007859  0.87236730  0.05366982    -0.22600
H1747       H  0.30557429  0.85720877  0.08973614     0.08500
C1748       C  0.32889186  0.89257882  0.13698466     0.04800
C1749       C  0.34450834  0.87898333  0.15575507    -0.19800
C1750       C  0.37857584  0.86404792  0.15546005    -0.12100
C1751       C  0.39725805  0.86212169  0.13573359     0.13600
C1752       C  0.38156175  0.87583433  0.11692462    -0.22600
C1753       C  0.29245842  0.90875374  0.13807718    -0.05600
H1754       H  0.33028338  0.88055871  0.17090263     0.15100
C1755       C  0.43327510  0.84525299  0.13388853    -0.15800
H1756       H  0.39579336  0.87454615  0.10176909     0.09400
H1757       H  0.24847944  0.86290878  0.06436666     0.07300
H1758       H  0.28574294  0.84936114  0.04813481     0.08500
H1759       H  0.25762132  0.88471487  0.03936114     0.07500
H1760       H  0.38875462  0.95368147  0.10498856     0.02400
H1761       H  0.35085811  0.96736160  0.12071497     0.02900
H1762       H  0.36336729  0.99164446  0.09699965     0.06400
H1763       H  0.28149123  0.90785957  0.15467513     0.05400
H1764       H  0.27407527  0.89420308  0.12731225    -0.00400
H1765       H  0.29362346  0.93674415  0.13289486     0.01100
H1766       H  0.43208260  0.82336144  0.12206502     0.04700
H1767       H  0.44291779  0.83417668  0.14936002     0.06700
H1768       H  0.45279662  0.86507707  0.12817973     0.07500
C1769       C  0.47979185  0.76627953  0.40232195    -0.22100
C1770       C  0.48151908  0.79331002  0.41763755     0.09900
C1771       C  0.47033361  0.82755099  0.41207231     0.10300
C1772       C  0.45597618  0.83363823  0.39153944    -0.17000
C1773       C  0.45328879  0.80643777  0.37626845    -0.27400
C1774       C  0.46619939  0.77249210  0.38156451     0.18600
C1775       C  0.49380268  0.78468451  0.43967392     0.12600
C1776       C  0.47405949  0.85768063  0.42768415    -0.11800
H1777       H  0.44685572  0.85984557  0.38732102     0.12900
C1778       C  0.46707026  0.74318104  0.36522842    -0.22600
H1779       H  0.48903406  0.74017838  0.40670703     0.08500
C1780       C  0.46938096  0.77601491  0.45603311     0.04800
C1781       C  0.48202927  0.76583548  0.47634783    -0.19800
C1782       C  0.01851512  0.76239508  0.48038095    -0.12100
C1783       C  0.04297699  0.77308685  0.46432573     0.13600
C1784       C  0.03023424  0.78378219  0.44406617    -0.22600
C1785       C  0.43006141  0.77550945  0.45168517    -0.05600
H1786       H  0.46328987  0.75789579  0.48868452     0.15100
C1787       C  0.08243290  0.77387923  0.46806730    -0.15800
H1788       H  0.04885002  0.79110229  0.43151639     0.09400
H1789       H  0.43980694  0.73551441  0.36053190     0.07300
H1790       H  0.48033083  0.71929710  0.37174442     0.08500
H1791       H  0.48194048  0.75188372  0.35072638     0.07500
H1792       H  0.00241970  0.86105511  0.43206085     0.02400
H1793       H  0.45859535  0.85232296  0.44252226     0.02900
H1794       H  0.46442275  0.88284537  0.42063909     0.06400
H1795       H  0.41477098  0.76731323  0.46614105     0.05400
H1796       H  0.42414090  0.75660603  0.43853346    -0.00400
H1797       H  0.42083409  0.80209683  0.44682933     0.01100
H1798       H  0.09568678  0.75551751  0.45674404     0.04700
H1799       H  0.08984071  0.76650756  0.48476802     0.06700
H1800       H  0.09255200  0.80093656  0.46510395     0.07500
C1801       C  0.93898766  0.31515364  0.35459049     0.03500
C1802       C  0.95433504  0.34279435  0.34285921    -0.12600
C1803       C  0.94019557  0.35343191  0.32297855     0.01000
C1804       C  0.91092803  0.33553191  0.31452140    -0.11200
C1805       C  0.89527686  0.30760999  0.32593558     0.03500
C1806       C  0.90910501  0.29782674  0.34615106    -0.10600
H1807       H  0.97712631  0.35638550  0.34950296     0.09100
H1808       H  0.90016503  0.34342843  0.29906824     0.06600
H1809       H  0.89619985  0.27749501  0.35554769     0.06500
C1810       C  0.89380173  0.35234516  0.17633712     0.03500
C1811       C  0.92136032  0.37175788  0.18595300    -0.12600
C1812       C  0.92977219  0.36656586  0.20778810     0.01000
C1813       C  0.91108766  0.34131185  0.21978437    -0.11200
C1814       C  0.88466855  0.32074027  0.21012930     0.03500
C1815       C  0.87630087  0.32617153  0.18834349    -0.10600
H1816       H  0.93397026  0.39288857  0.17701785     0.09100
H1817       H  0.91654425  0.33828023  0.23685485     0.06600
H1818       H  0.85434821  0.31197950  0.18114699     0.06500
C1819       C  0.66045467  0.34867443  0.36229953     0.03500
C1820       C  0.68423904  0.32737505  0.35051013    -0.12600
C1821       C  0.67930450  0.32098199  0.32847670     0.01000
C1822       C  0.65301775  0.33943812  0.31726778    -0.11200
C1823       C  0.62954369  0.36152718  0.32829977     0.03500
C1824       C  0.63188929  0.36414976  0.35086340    -0.10600
H1825       H  0.70794042  0.31702611  0.35794907     0.09100
H1826       H  0.65091398  0.33673449  0.29991532     0.06600
H1827       H  0.61258546  0.38019368  0.35910457     0.06500
C1828       C  0.93472312  0.12226107  0.18143080     0.03500
C1829       C  0.95301131  0.09500782  0.19181670    -0.12600
C1830       C  0.94214793  0.08291116  0.21218185     0.01000
C1831       C  0.91323181  0.09922394  0.22243121    -0.11200
C1832       C  0.89546654  0.12742059  0.21244576     0.03500
C1833       C  0.90634275  0.13854269  0.19188537    -0.10600
H1834       H  0.97526388  0.08294817  0.18369504     0.09100
H1835       H  0.90481220  0.09025193  0.23821363     0.06600
H1836       H  0.89255321  0.15964569  0.18366596     0.06500
C1837       C  0.95571691  0.38383209  0.31158640     0.42800
N1838       N  0.48876206  0.42847798  0.30537897     0.01700
C1839       C  0.49265576  0.03518077  0.21492140    -0.06100
H1840       H  0.50157811  0.40237611  0.19728609     0.07200
C1841       C  0.61900115  0.40245235  0.24341253    -0.06500
Co1842     Co  0.96708752  0.46844287  0.26594850     0.74200
N1843       N  0.49430792  0.43143265  0.22692134    -0.25700
Co1844     Co  0.53509883  0.46861077  0.22857597     0.74100
C1845       C  0.60778610  0.38604309  0.22325835     0.42900
N1846       N  0.59251609  0.42728294  0.29421910     0.01400
N1847       N  0.57343611  0.42936452  0.23023382     0.01500
N1848       N  0.94835123  0.03447049  0.23951818    -0.46500
H1849       H  0.92123911  0.39531950  0.28156285     0.07200
N1850       N  0.96908785  0.43096420  0.24163029     0.01700
N1851       N  0.57558153  0.00595593  0.23078038     0.01500
C1852       C  0.61272176  0.04706938  0.22359706     0.43100
N1853       N  0.56707070  0.42777208  0.30875584    -0.25100
C1854       C  0.94223752  0.03131809  0.29363844    -0.06000
N1855       N  0.48379528  0.40210639  0.31895614    -0.46200
N1856       N  0.58390422  0.02992674  0.21606612    -0.46500
C1857       C  0.95186610  0.04621143  0.31442828     0.42900
N1858       N  0.97071529  0.00800571  0.24254858     0.01700
N1859       N  0.56760513  0.00428168  0.30924604    -0.25100
N1860       N  0.96551298  0.42893949  0.28947060    -0.25600
N1861       N  0.59359759  0.00450069  0.29502868     0.01400
H1862       H  0.55615076  0.03619722  0.33706571     0.07300
H1863       H  0.64517931  0.03553234  0.25422447     0.07300
N1864       N  0.49674879  0.00785763  0.22835702    -0.25700
N1865       N  0.59630826  0.42894001  0.24635623    -0.25300
N1866       N  0.48842374  0.00499912  0.30660728     0.01700
C1867       C  0.95353525  0.39102683  0.21919174     0.43100
C1868       C  0.57326787  0.40219204  0.32327415    -0.06600
N1869       N  0.59804975  0.00550377  0.24709954    -0.25300
H1870       H  0.64118930  0.39647633  0.25382976     0.07300
N1871       N  0.94422870  0.40732190  0.23759036    -0.46500
H1872       H  0.55765156  0.39708048  0.33755339     0.07300
C1873       C  0.60585320  0.04705951  0.31643014     0.43000
C1874       C  0.94332102  0.40158721  0.29199882    -0.06000
Co1875     Co  0.52785316  0.46645373  0.30794168     0.73800
N1876       N  0.61632019  0.40239758  0.29800470    -0.46200
C1877       C  0.96056014  0.05284740  0.22238688     0.43200
N1878       N  0.48031670  0.02817432  0.32179252    -0.46200
Co1879     Co  0.59581733  0.46657290  0.27070980     0.73900
C1880       C  0.62230294  0.03083321  0.24410729    -0.06600
C1881       C  0.48656225  0.40724885  0.21180956    -0.06100
N1882       N  0.96600325  0.00581932  0.29028147    -0.25600
N1883       N  0.57949743  0.40425520  0.21588846    -0.46400
H1884       H  0.50985848  0.04139469  0.20151854     0.07200
C1885       C  0.57301749  0.03020796  0.32347597    -0.06500
Cl1886     Cl  0.53147701  0.46755550  0.26827695    -0.49500
C1887       C  0.60581007  0.38507873  0.31594282     0.43000
H1888       H  0.91949292  0.03686813  0.28356304     0.07200
N1889       N  0.61701525  0.02982192  0.29867071    -0.46200
C1890       C  0.63512185  0.32081193  0.18001159     0.03500
C1891       C  0.61641654  0.34754550  0.19077791    -0.12600
C1892       C  0.62572963  0.35699899  0.21189240     0.01000
C1893       C  0.65321447  0.33896580  0.22227869    -0.11200
C1894       C  0.67207244  0.31231446  0.21186812     0.03500
C1895       C  0.66280645  0.30311571  0.19070437    -0.10600
H1896       H  0.59484836  0.36097342  0.18265090     0.09100
H1897       H  0.65986908  0.34555505  0.23870367     0.06600
H1898       H  0.67720158  0.28247096  0.18245453     0.06500
C1899       C  0.89313434  0.07689607  0.35980240     0.03500
C1900       C  0.92069782  0.05973633  0.34883236    -0.12600
C1901       C  0.92865857  0.06881153  0.32747745     0.01000
C1902       C  0.90964392  0.09586426  0.31736098    -0.11200
C1903       C  0.88310985  0.11428938  0.32839001     0.03500
C1904       C  0.87559415  0.10543302  0.34988804    -0.10600
H1905       H  0.93360840  0.03722022  0.35620947     0.09100
H1906       H  0.91452857  0.10163062  0.30049556     0.06600
H1907       H  0.85376851  0.11815077  0.35811739     0.06500
C1908       C  0.62902696  0.12034511  0.35562972     0.03500
C1909       C  0.65200658  0.14053856  0.34258963    -0.12600
C1910       C  0.66422523  0.12756152  0.32273126     0.01000
C1911       C  0.64897415  0.09685408  0.31424726    -0.11200
C1912       C  0.62353258  0.07806874  0.32598207     0.03500
C1913       C  0.61515165  0.08887313  0.34694549    -0.10600
H1914       H  0.66144603  0.16585743  0.34812007     0.09100
H1915       H  0.65678041  0.08747201  0.29850250     0.06600
H1916       H  0.59811806  0.07217659  0.35653633     0.06500
C1917       C  0.66771538  0.08122091  0.17733789     0.03500
C1918       C  0.68582250  0.10924381  0.18717602    -0.12600
C1919       C  0.67983954  0.11696531  0.20895819     0.01000
C1920       C  0.65510974  0.09702274  0.22066021    -0.11200
C1921       C  0.63561028  0.07024489  0.21062879     0.03500
C1922       C  0.64166739  0.06272793  0.18883340    -0.10600
H1923       H  0.70681718  0.12263776  0.17850152     0.09100
H1924       H  0.65163900  0.10182297  0.23774990     0.06600
H1925       H  0.62853151  0.04046263  0.18137452     0.06500
C1926       C  0.86254479  0.29742024  0.22355482     0.42800
N1927       N  0.82137553  0.26051859  0.23133859     0.01700
C1928       C  0.71870813  0.26396839  0.32442850    -0.06100
H1929       H  0.85194041  0.24116634  0.33792130     0.07200
C1930       C  0.84406162  0.12826849  0.29509968    -0.06500
Co1931     Co  0.78252768  0.28177834  0.27113385     0.74200
N1932       N  0.81971001  0.25289912  0.31005387    -0.25700
Co1933     Co  0.78023882  0.21467037  0.30906885     0.74100
C1934       C  0.85919851  0.13732431  0.31592525     0.42900
N1935       N  0.82140933  0.15638729  0.24384881     0.01400
N1936       N  0.81796997  0.17416833  0.30822089     0.01500
N1937       N  0.72021821  0.30585335  0.29842877    -0.46500
H1938       H  0.85181740  0.32987105  0.25411185     0.07200
N1939       N  0.82057305  0.27840298  0.29554159     0.01700
N1940       N  0.74046314  0.17677044  0.30638116     0.01500
C1941       C  0.69426629  0.14479251  0.31153795     0.43100
N1942       N  0.82138238  0.18224665  0.22958585    -0.25100
C1943       C  0.71834400  0.30616880  0.24339285    -0.06000
N1944       N  0.84493824  0.26877318  0.21631214    -0.46200
N1945       N  0.71303059  0.17224868  0.31942451    -0.46500
C1946       C  0.70161325  0.29489805  0.22328748     0.42900
N1947       N  0.74335506  0.28040359  0.29462624     0.01700
N1948       N  0.74467350  0.18127062  0.22810651    -0.25100
N1949       N  0.82156349  0.28288976  0.24756612    -0.25600
N1950       N  0.74386578  0.15637789  0.24295931     0.01400
H1951       H  0.71567911  0.18835603  0.19830362     0.07300
H1952       H  0.70699221  0.11050379  0.28185952     0.07300
N1953       N  0.74302216  0.25551079  0.30951677    -0.25700
N1954       N  0.81865304  0.15216148  0.29180640    -0.25300
N1955       N  0.74439208  0.26000869  0.23078473     0.01700
C1956       C  0.86416357  0.28961834  0.31662427     0.43100
C1957       C  0.84823013  0.17773226  0.21589608    -0.06600
N1958       N  0.74120712  0.15362237  0.29053513    -0.25300
H1959       H  0.84953028  0.10589104  0.28486960     0.07300
N1960       N  0.84675006  0.30090238  0.29888931    -0.46500
H1961       H  0.85423769  0.19480751  0.20241351     0.07300
C1962       C  0.70346282  0.14115630  0.22060098     0.43000
C1963       C  0.84699243  0.30691346  0.24423525    -0.06000
Co1964     Co  0.78289064  0.22106739  0.22951803     0.73800
N1965       N  0.84747637  0.13356038  0.24052016    -0.46200
C1966       C  0.70345547  0.29718919  0.31684873     0.43200
N1967       N  0.71929141  0.26622346  0.21631062    -0.46200
Co1968     Co  0.78138870  0.15391833  0.26730800     0.73900
C1969       C  0.71311342  0.13223750  0.29245645    -0.06600
C1970       C  0.84627060  0.25772658  0.32413833    -0.06100
N1971       N  0.74451178  0.28308079  0.24667655    -0.25600
N1972       N  0.84136205  0.16569675  0.32340035    -0.46400
H1973       H  0.71353874  0.24956111  0.33915575     0.07200
C1974       C  0.72024631  0.17367618  0.21300526    -0.06500
Cl1975     Cl  0.78176530  0.21787517  0.26926539    -0.49500
C1976       C  0.86553410  0.14545858  0.22310735     0.43000
H1977       H  0.71269055  0.32855605  0.25355387     0.07200
N1978       N  0.71980566  0.13191407  0.23904626    -0.46200
C1979       C  0.76570724  0.45224555  0.49850407     0.02700
C1980       C  0.79678398  0.47368579  0.49789291     0.02600
C1981       C  0.81122816  0.48610575  0.51737261    -0.17900
C1982       C  0.79644592  0.47708450  0.53728301     0.02700
C1983       C  0.76644061  0.45505147  0.53799677     0.02600
C1984       C  0.75100607  0.44366247  0.51871795    -0.17900
H1985       H  0.72737093  0.42743653  0.51956208     0.04700
H1986       H  0.83435979  0.00308774  0.51704625     0.04700
C1987       C  0.51729129  0.21142551  0.03703244     0.02700
C1988       C  0.54448528  0.23700406  0.03642106     0.02600
C1989       C  0.55616802  0.24986795  0.01650926    -0.17900
C1990       C  0.54189432  0.23697743  0.99724841     0.02700
C1991       C  0.51505901  0.21113829  0.99779553     0.02600
C1992       C  0.00299281  0.19854573  0.01771669    -0.17900
H1993       H  0.98234509  0.17868024  0.01820566     0.04700
H1994       H  0.57670656  0.26985301  0.01599133     0.04700
C1995       C  0.52941319  0.24490642  0.50083561     0.02700
C1996       C  0.54818204  0.21241052  0.50120291     0.02600
C1997       C  0.55726734  0.19742928  0.52121127    -0.17900
C1998       C  0.54602237  0.21254123  0.54065562     0.02700
C1999       C  0.52527379  0.24344660  0.54010700     0.02600
C2000       C  0.51788474  0.25965766  0.52032971    -0.17900
H2001       H  0.00207925  0.28350396  0.52008209     0.04700
H2002       H  0.57264972  0.17333505  0.52170712     0.04700
C2003       C  0.78434938  0.44762024  0.03963751     0.02700
C2004       C  0.75792171  0.47394007  0.04005049     0.02600
C2005       C  0.74404972  0.48703460  0.02067962    -0.17900
C2006       C  0.75633955  0.47487754  0.00075006     0.02700
C2007       C  0.78411918  0.44976206  0.00027716     0.02600
C2008       C  0.79730351  0.43599501  0.01971464    -0.17900
H2009       H  0.81823906  0.41643813  0.01935424     0.04700
H2010       H  0.72340607  0.00689195  0.02113624     0.04700
C2011       C  0.87562993  0.37209682  0.85599262     0.03500
C2012       C  0.85966344  0.34440548  0.84469145    -0.12600
C2013       C  0.87136919  0.33539794  0.82399558     0.01000
C2014       C  0.89920037  0.35445311  0.81463342    -0.11200
C2015       C  0.91511896  0.38254477  0.82565608     0.03500
C2016       C  0.90290286  0.39157951  0.84626619    -0.10600
H2017       H  0.83845150  0.32959338  0.85223415     0.09100
H2018       H  0.90844964  0.34757755  0.79868201     0.06600
H2019       H  0.91487933  0.41319540  0.85499818     0.06500
C2020       C  0.91768581  0.11172206  0.85951723     0.03500
C2021       C  0.93537517  0.08392916  0.84920264    -0.12600
C2022       C  0.92738410  0.07572265  0.82770029     0.01000
C2023       C  0.90096975  0.09466211  0.81686328    -0.11200
C2024       C  0.88252734  0.12171314  0.82718415     0.03500
C2025       C  0.89053871  0.12988074  0.84867394    -0.10600
H2026       H  0.95739672  0.07103995  0.85720832     0.09100
H2027       H  0.89583048  0.08937294  0.79997273     0.06600
H2028       H  0.87799473  0.15227680  0.85631626     0.06500
C2029       C  0.68029499  0.07008483  0.85645014     0.03500
C2030       C  0.65334735  0.05266242  0.84503078    -0.12600
C2031       C  0.64357037  0.06397727  0.82428230     0.01000
C2032       C  0.66173311  0.09234884  0.81482433    -0.11200
C2033       C  0.68923345  0.10949207  0.82585172     0.03500
C2034       C  0.69848661  0.09810849  0.84666147    -0.10600
H2035       H  0.63954818  0.03083385  0.85257312     0.09100
H2036       H  0.65456323  0.10119379  0.79880454     0.06600
H2037       H  0.71922901  0.11144607  0.85554789     0.06500
C2038       C  0.63986422  0.33452505  0.85919113     0.03500
C2039       C  0.62264328  0.36218812  0.84852971    -0.12600
C2040       C  0.63081404  0.36996883  0.82703258     0.01000
C2041       C  0.65691848  0.35025428  0.81636825    -0.11200
C2042       C  0.67584740  0.32388799  0.82738369     0.03500
C2043       C  0.66729593  0.31621106  0.84888863    -0.10600
H2044       H  0.60086159  0.37559746  0.85639387     0.09100
H2045       H  0.66215190  0.35509312  0.79943425     0.06600
H2046       H  0.67990948  0.29423559  0.85702173     0.06500
C2047       C  0.64437413  0.10638496  0.67721562     0.03500
C2048       C  0.67068077  0.12523639  0.68835751    -0.12600
C2049       C  0.67749436  0.11796349  0.71016453     0.01000
C2050       C  0.65823954  0.09136335  0.72063673    -0.11200
C2051       C  0.63303156  0.07145672  0.70939584     0.03500
C2052       C  0.62657241  0.07867550  0.68761079    -0.10600
H2053       H  0.68344560  0.14752059  0.68063490     0.09100
H2054       H  0.66209524  0.08683744  0.73774456     0.06600
H2055       H  0.60542452  0.06497028  0.67926717     0.06500
C2056       C  0.87778369  0.07223838  0.68001654     0.03500
C2057       C  0.90536563  0.05477480  0.69064735    -0.12600
C2058       C  0.91669105  0.06570614  0.71115376     0.01000
C2059       C  0.89979572  0.09445576  0.72102146    -0.11200
C2060       C  0.87141000  0.11160648  0.71067246     0.03500
C2061       C  0.86059608  0.10023416  0.69015881    -0.10600
H2062       H  0.91811583  0.03292831  0.68262089     0.09100
H2063       H  0.90831331  0.10307092  0.73684284     0.06600
H2064       H  0.83919170  0.11337069  0.68175387     0.06500
C2065       C  0.85481925  0.30580552  0.81242636     0.42800
N2066       N  0.82077202  0.26220135  0.80551908     0.01700
C2067       C  0.82020392  0.15818020  0.71391010    -0.06100
H2068       H  0.80726259  0.28984216  0.69744577     0.07200
C2069       C  0.69041998  0.28624143  0.74359622    -0.06500
Co2070     Co  0.84346121  0.22335786  0.76589978     0.74200
N2071       N  0.81526129  0.26067349  0.72705389    -0.25700
Co2072     Co  0.77561550  0.22228919  0.72834862     0.74100
C2073       C  0.70213792  0.30413489  0.72397969     0.42900
N2074       N  0.71640687  0.26015359  0.79382846     0.01400
N2075       N  0.73627054  0.26031493  0.73020795     0.01500
N2076       N  0.86446798  0.15898268  0.73861951    -0.46500
H2077       H  0.88916839  0.29489871  0.78239873     0.07200
N2078       N  0.84049723  0.26151160  0.74178529     0.01700
N2079       N  0.73626592  0.18358188  0.73018710     0.01500
C2080       C  0.70019882  0.14157413  0.72293665     0.43100
N2081       N  0.74161960  0.26051067  0.80857262    -0.25100
C2082       C  0.86931878  0.16025481  0.79351675    -0.06000
N2083       N  0.82636717  0.28773572  0.81957360    -0.46200
N2084       N  0.72841932  0.15970688  0.71534999    -0.46500
C2085       C  0.85972737  0.14496363  0.81425930     0.42900
N2086       N  0.84112680  0.18443355  0.74210973     0.01700
N2087       N  0.74403032  0.18407152  0.80883658    -0.25100
N2088       N  0.84407543  0.26213352  0.78966027    -0.25600
N2089       N  0.71825868  0.18307681  0.79445852     0.01400
H2090       H  0.75633229  0.15234402  0.83671940     0.07300
H2091       H  0.66788036  0.15154064  0.75370839     0.07300
N2092       N  0.81513178  0.18444181  0.72785890    -0.25700
N2093       N  0.71315069  0.25959773  0.74614721    -0.25300
N2094       N  0.82279956  0.18581086  0.80644058     0.01700
C2095       C  0.85493922  0.30223600  0.71944734     0.43100
C2096       C  0.73370336  0.28531593  0.82322293    -0.06600
N2097       N  0.71399369  0.18296364  0.74655831    -0.25300
H2098       H  0.66845737  0.29194256  0.75418730     0.07300
N2099       N  0.86476105  0.28582357  0.73779460    -0.46500
H2100       H  0.74852328  0.29074013  0.83777561     0.07300
C2101       C  0.70744580  0.13973930  0.81571406     0.43000
C2102       C  0.86672003  0.28889578  0.79258036    -0.06000
Co2103     Co  0.78241369  0.22321901  0.80779918     0.73800
N2104       N  0.69133010  0.28375412  0.79745580    -0.46200
C2105       C  0.85290050  0.14129288  0.72107509     0.43200
N2106       N  0.83104004  0.16246264  0.82156776    -0.46200
Co2107     Co  0.71478572  0.22136038  0.77025732     0.73900
C2108       C  0.69050470  0.15703066  0.74355062    -0.06600
C2109       C  0.82233662  0.28527060  0.71202455    -0.06100
N2110       N  0.84523355  0.18550506  0.79013411    -0.25600
N2111       N  0.73063108  0.28653413  0.71649877    -0.46400
H2112       H  0.80324536  0.15223960  0.70034166     0.07200
C2113       C  0.73948132  0.15775236  0.82299696    -0.06500
Cl2114     Cl  0.77909015  0.22254954  0.76807701    -0.49500
C2115       C  0.70059395  0.30106760  0.81553273     0.43000
H2116       H  0.89212589  0.15504876  0.78348196     0.07200
N2117       N  0.69571960  0.15694991  0.79799549    -0.46200
C2118       C  0.91521053  0.33810038  0.67607168     0.03500
C2119       C  0.88731121  0.31963272  0.68596733    -0.12600
C2120       C  0.87869581  0.32617761  0.70758828     0.01000
C2121       C  0.89745427  0.35196153  0.71903559    -0.11200
C2122       C  0.92436675  0.37159420  0.70908528     0.03500
C2123       C  0.93291150  0.36484339  0.68745545    -0.10600
H2124       H  0.87470567  0.29804229  0.67750830     0.09100
H2125       H  0.89188420  0.35591322  0.73600131     0.06600
H2126       H  0.95533110  0.37806680  0.68009911     0.06500
C2127       C  0.68286753  0.37828188  0.68455641     0.03500
C2128       C  0.65395482  0.39444154  0.69468027    -0.12600
C2129       C  0.64104537  0.38132112  0.71426909     0.01000
C2130       C  0.65751593  0.35216794  0.72378173    -0.11200
C2131       C  0.68620330  0.33551651  0.71381580     0.03500
C2132       C  0.69884071  0.34866676  0.69410043    -0.10600
H2133       H  0.64130718  0.41691776  0.68709249     0.09100
H2134       H  0.64776541  0.34222991  0.73896678     0.06600
H2135       H  0.72066499  0.33573225  0.68600345     0.06500
C2136       C  0.94706044  0.39459473  0.72238571     0.42800
N2137       N  0.98855291  0.43099831  0.73041566     0.01700
C2138       C  0.59266414  0.42757697  0.82291746    -0.06100
H2139       H  0.95802084  0.44923452  0.83720361     0.07200
C2140       C  0.96597088  0.06219269  0.79435385    -0.06500
Co2141     Co  0.52670212  0.40907987  0.77051150     0.74200
N2142       N  0.98986292  0.43769870  0.80926570    -0.25700
Co2143     Co  0.52947276  0.47576093  0.80849350     0.74100
C2144       C  0.95069429  0.05270483  0.81507733     0.42900
N2145       N  0.98962832  0.03505145  0.74307536     0.01400
N2146       N  0.99188194  0.01608619  0.80746072     0.01500
N2147       N  0.59018475  0.38557152  0.79722629    -0.46500
H2148       H  0.95688681  0.36197365  0.75309345     0.07200
N2149       N  0.98860686  0.41251886  0.79465404     0.01700
N2150       N  0.56900971  0.01380630  0.80635720     0.01500
C2151       C  0.61367184  0.04709943  0.81283209     0.43100
N2152       N  0.98958516  0.00939544  0.72875868    -0.25100
C2153       C  0.59176862  0.38511021  0.74401847    -0.06000
N2154       N  0.96514389  0.42305049  0.71519627    -0.46200
N2155       N  0.59534173  0.01893459  0.82014281    -0.46500
C2156       C  0.60988078  0.39724632  0.72460747     0.42900
N2157       N  0.56603688  0.41029496  0.79397964     0.01700
N2158       N  0.56639037  0.00921914  0.72818645    -0.25100
N2159       N  0.98783947  0.40857067  0.74668672    -0.25600
N2160       N  0.56726591  0.03414219  0.74294141     0.01400
H2161       H  0.59670177  0.00077050  0.69912448     0.07300
H2162       H  0.60190806  0.08156234  0.78295187     0.07300
N2163       N  0.56687646  0.43523225  0.80873278    -0.25700
N2164       N  0.99140375  0.03837995  0.79110890    -0.25300
N2165       N  0.56571988  0.43093586  0.73074413     0.01700
C2166       C  0.94504945  0.40140182  0.81567563     0.44700
C2167       C  0.96310325  0.01452599  0.71481285    -0.06600
N2168       N  0.56862664  0.03714945  0.79055403    -0.25300
H2169       H  0.96064501  0.08480107  0.78421334     0.07300
N2170       N  0.96225437  0.39018843  0.79792415    -0.46500
H2171       H  0.95716048  0.99778893  0.70120998     0.07300
C2172       C  0.60928807  0.04777223  0.72132344     0.43000
C2173       C  0.96216048  0.38489547  0.74321082    -0.06000
Co2174     Co  0.52758484  0.47010056  0.72904493     0.73800
N2175       N  0.96399357  0.05830250  0.73955715    -0.46200
C2176       C  0.60846713  0.39490164  0.81498106     0.43200
N2177       N  0.59219658  0.42567432  0.71715682    -0.46200
Co2178     Co  0.52912988  0.03694137  0.76689642     0.73900
C2179       C  0.59593570  0.05929078  0.79322024    -0.06600
C2180       C  0.96335336  0.43290455  0.82333048    -0.06100
N2181       N  0.56493830  0.40761986  0.74652840    -0.25600
N2182       N  0.96840887  0.02424570  0.82255373    -0.46400
H2183       H  0.59879385  0.44235210  0.83733260     0.07200
C2184       C  0.59179361  0.01582751  0.71358957    -0.06500
Cl2185     Cl  0.52812434  0.47298612  0.76874301    -0.49500
C2186       C  0.94611778  0.04694664  0.72196164     0.43000
H2187       H  0.59752206  0.36311245  0.75454393     0.07200
N2188       N  0.59232301  0.05779547  0.73937822    -0.46200
C2189       C  0.71249291  0.98489773  0.94566351    -0.22100
C2190       C  0.71845472  0.02073133  0.94157612     0.09900
C2191       C  0.73383022  0.04201282  0.95765473     0.10300
C2192       C  0.74493319  0.02643778  0.97705107    -0.17000
C2193       C  0.74085122  0.49012995  0.98074178    -0.27400
C2194       C  0.72280229  0.46944164  0.96524693     0.18600
C2195       C  0.70936982  0.03500787  0.92004880     0.12600
C2196       C  0.73872919  0.08101179  0.95424798    -0.11800
H2197       H  0.75789245  0.04247055  0.98916435     0.12900
C2198       C  0.71308727  0.43141176  0.96900270    -0.22600
H2199       H  0.69976890  0.46889325  0.93345212     0.08500
C2200       C  0.73438716  0.03504316  0.90317145     0.04800
C2201       C  0.72414184  0.04675077  0.88262133    -0.19800
C2202       C  0.68962687  0.05900892  0.87867228    -0.12100
C2203       C  0.66502010  0.06039087  0.89590716     0.13600
C2204       C  0.67509222  0.04776873  0.91629917    -0.22600
C2205       C  0.77187964  0.52277460  0.90691264    -0.05600
H2206       H  0.74309624  0.04616489  0.86950235     0.15100
C2207       C  0.62842170  0.07592310  0.89362661    -0.15800
H2208       H  0.65617701  0.04820574  0.92944940     0.09400
H2209       H  0.72606411  0.41466979  0.95667084     0.07300
H2210       H  0.68392083  0.42825078  0.96754108     0.08500
H2211       H  0.72080082  0.42181415  0.98522045     0.07500
H2212       H  0.71256581  0.09357349  0.95140411     0.02400
H2213       H  0.75599895  0.08586168  0.94009024     0.02900
H2214       H  0.75112662  0.09376720  0.96847912     0.06400
H2215       H  0.78778031  0.52341597  0.89186545     0.05400
H2216       H  0.77177022  0.49545559  0.91315468    -0.00400
H2217       H  0.78505240  0.53995423  0.91894132     0.01100
H2218       H  0.60824880  0.05527063  0.89684935     0.04700
H2219       H  0.62329565  0.08732939  0.87748318     0.06700
H2220       H  0.62506849  0.09747938  0.90552167     0.07500
C2221       C  0.82942663  0.44716561  0.94553401    -0.22100
C2222       C  0.82448280  0.41179739  0.93996426     0.09900
C2223       C  0.80854979  0.38841807  0.95473968     0.10300
C2224       C  0.79609185  0.40150771  0.97443815    -0.17000
C2225       C  0.79975521  0.43728302  0.97974696    -0.27400
C2226       C  0.81806386  0.46007656  0.96547877     0.18600
C2227       C  0.83679896  0.39992706  0.91862888     0.12600
C2228       C  0.80501293  0.34974796  0.94977359    -0.11800
H2229       H  0.78290025  0.38389557  0.98564281     0.12900
C2230       C  0.82727068  0.99762045  0.97099875    -0.22600
H2231       H  0.84269188  0.46472722  0.93431520     0.08500
C2232       C  0.81393276  0.39980491  0.90063953     0.04800
C2233       C  0.82745874  0.39059093  0.88040947    -0.19800
C2234       C  0.86311650  0.38092550  0.87787606    -0.12100
C2235       C  0.88566058  0.37973137  0.89614120     0.13600
C2236       C  0.87228512  0.38992734  0.91624086    -0.22600
C2237       C  0.77538816  0.40954388  0.90277493    -0.05600
H2238       H  0.81018507  0.39111128  0.86642861     0.15100
C2239       C  0.92344536  0.36686654  0.89525463    -0.15800
H2240       H  0.88955380  0.38971089  0.93023325     0.09400
H2241       H  0.81455614  0.01572885  0.95923045     0.07300
H2242       H  0.85644476  0.00118472  0.97008281     0.08500
H2243       H  0.81898297  0.00515016  0.98747340     0.07500
H2244       H  0.83169322  0.33820662  0.94716782     0.02400
H2245       H  0.78883684  0.34593504  0.93503014     0.02900
H2246       H  0.79208697  0.33516128  0.96317057     0.06400
H2247       H  0.76148793  0.40896966  0.88698879     0.05400
H2248       H  0.77298883  0.43639453  0.90947801    -0.00400
H2249       H  0.76180164  0.39083718  0.91375843     0.01100
H2250       H  0.94167125  0.38857975  0.89982909     0.04700
H2251       H  0.93125424  0.35696711  0.87918196     0.06700
H2252       H  0.92691674  0.34475737  0.90682431     0.07500
C2253       C  0.63529713  0.13843846  0.61920798    -0.22100
C2254       C  0.60032836  0.15100718  0.61939318     0.09900
C2255       C  0.57992784  0.14813567  0.63832515     0.10300
C2256       C  0.59503003  0.13275071  0.65670274    -0.17000
C2257       C  0.63010573  0.12029441  0.65666039    -0.27400
C2258       C  0.65052713  0.12306644  0.63762895     0.18600
C2259       C  0.58565466  0.16735806  0.59962391     0.12600
C2260       C  0.54254297  0.16200133  0.63926262    -0.11800
H2261       H  0.57957410  0.13103204  0.67140014     0.12900
C2262       C  0.68798234  0.10956472  0.63604385    -0.22600
H2263       H  0.65079348  0.14062447  0.60454983     0.08500
C2264       C  0.59395781  0.20234741  0.59387304     0.04800
C2265       C  0.58015268  0.21643378  0.57471133    -0.19800
C2266       C  0.55770132  0.19656627  0.56136108    -0.12100
C2267       C  0.54862611  0.16173603  0.56749258     0.13600
C2268       C  0.56298030  0.14752085  0.58649007    -0.22600
C2269       C  0.61720422  0.22482943  0.60802260    -0.05600
H2270       H  0.58737633  0.24294231  0.56992107     0.15100
C2271       C  0.52359702  0.13896988  0.55467596    -0.15800
H2272       H  0.55635282  0.12076878  0.59115292     0.09400
H2273       H  0.70614541  0.13179261  0.63233580     0.07300
H2274       H  0.68968779  0.08988189  0.62287310     0.08500
H2275       H  0.69725479  0.09659426  0.65103567     0.07500
H2276       H  0.52572960  0.14799112  0.62735344     0.02400
H2277       H  0.54242692  0.19063335  0.63554460     0.02900
H2278       H  0.53059793  0.15819958  0.65545993     0.06400
H2279       H  0.62059848  0.25177119  0.60130465     0.05400
H2280       H  0.64382911  0.21266996  0.60958062    -0.00400
H2281       H  0.60508917  0.22721244  0.62425502     0.01100
H2282       H  0.53776762  0.11507687  0.54905613     0.04700
H2283       H  0.51228767  0.15256127  0.54044609     0.06700
H2284       H  0.00109908  0.13069209  0.56506902     0.07500
C2285       C  0.96097950  0.25757917  0.58641355    -0.22100
C2286       C  0.97655256  0.28633978  0.59689404     0.09900
C2287       C  0.00832865  0.30088299  0.58880330     0.10300
C2288       C  0.02361871  0.28654475  0.57015423    -0.17000
C2289       C  0.50823990  0.25757605  0.55975879    -0.27400
C2290       C  0.97631909  0.24303881  0.56788297     0.18600
C2291       C  0.95994432  0.29983637  0.61686430     0.12600
C2292       C  0.02610512  0.33134972  0.59995177    -0.11800
H2293       H  0.54796377  0.29769761  0.56378320     0.12900
C2294       C  0.95757030  0.21255773  0.55728287    -0.22600
H2295       H  0.93666638  0.24639346  0.59275923     0.08500
C2296       C  0.93296357  0.32561170  0.61642286     0.04800
C2297       C  0.91869447  0.33788914  0.63596595    -0.19800
C2298       C  0.93060736  0.32453708  0.65580178    -0.12100
C2299       C  0.95713629  0.29813891  0.65611727     0.13600
C2300       C  0.97151824  0.28627086  0.63663847    -0.22600
C2301       C  0.91932235  0.33999858  0.59535223    -0.05600
H2302       H  0.89818094  0.35786668  0.63579459     0.15100
C2303       C  0.97089647  0.28178247  0.67666746    -0.15800
H2304       H  0.49199710  0.26617535  0.63686266     0.09400
H2305       H  0.93020238  0.22056476  0.55287412     0.07300
H2306       H  0.45621184  0.19009551  0.56866052     0.08500
H2307       H  0.47082812  0.20349923  0.54234759     0.07500
H2308       H  0.03330120  0.32368492  0.61667306     0.02400
H2309       H  0.00782544  0.35423425  0.60045077     0.02900
H2310       H  0.05069630  0.33960436  0.59150183     0.06400
H2311       H  0.89827101  0.36002203  0.59783770     0.05400
H2312       H  0.90802185  0.31825963  0.58556461    -0.00400
H2313       H  0.94133078  0.35254867  0.58628394     0.01100
H2314       H  0.46592659  0.25288643  0.67635781     0.04700
H2315       H  0.95828744  0.29248140  0.69137143     0.06700
H2316       H  0.49986437  0.28635984  0.67794728     0.07500
C2317       C  0.58467415  0.28265852  0.89913728    -0.22100
C2318       C  0.59662794  0.29661111  0.91868427     0.09900
C2319       C  0.62277421  0.32322386  0.91875391     0.10300
C2320       C  0.63663713  0.33522003  0.89906636    -0.17000
C2321       C  0.62493009  0.32096182  0.87949819    -0.27400
C2322       C  0.59841350  0.29453951  0.87948473     0.18600
C2323       C  0.58218153  0.28186939  0.93887244     0.12600
C2324       C  0.63583475  0.33893744  0.93956570    -0.11800
H2325       H  0.65668186  0.35569607  0.89890424     0.12900
C2326       C  0.58394533  0.27832455  0.85911233    -0.22600
H2327       H  0.56458313  0.26219150  0.89924439     0.08500
C2328       C  0.54936496  0.29310266  0.94726546     0.04800
C2329       C  0.53646202  0.27747826  0.96619628    -0.19800
C2330       C  0.55571691  0.25096498  0.97674263    -0.12100
C2331       C  0.58848406  0.23960500  0.96824681     0.13600
C2332       C  0.60131264  0.25525953  0.94935537    -0.22600
C2333       C  0.52832769  0.32182316  0.93641272    -0.05600
H2334       H  0.51153986  0.28624496  0.97297626     0.15100
C2335       C  0.61044725  0.21102883  0.97860712    -0.15800
H2336       H  0.62637547  0.24659272  0.94269046     0.09400
H2337       H  0.55492738  0.28299429  0.85819914     0.07300
H2338       H  0.58882905  0.24948058  0.85935118     0.08500
H2339       H  0.59605980  0.28919607  0.84426137     0.07500
H2340       H  0.64801141  0.31810227  0.94973730     0.02400
H2341       H  0.61330744  0.35092028  0.94840016     0.02900
H2342       H  0.65604619  0.35972990  0.93672537     0.06400
H2343       H  0.50344930  0.32768156  0.94526032     0.05400
H2344       H  0.52116192  0.31366560  0.91980181    -0.00400
H2345       H  0.54437055  0.34632892  0.93567045     0.01100
H2346       H  0.61460354  0.18936038  0.96689241     0.04700
H2347       H  0.59786903  0.19951470  0.99313555     0.06700
H2348       H  0.63661865  0.22193823  0.98336222     0.07500
C2349       C  0.96802451  0.16810284  0.89967886    -0.22100
C2350       C  0.95790592  0.15263010  0.91922435     0.09900
C2351       C  0.93442719  0.12364559  0.91919957     0.10300
C2352       C  0.92175946  0.11052921  0.89946668    -0.17000
C2353       C  0.93190645  0.12602985  0.87988806    -0.27400
C2354       C  0.95543920  0.15513485  0.87997501     0.18600
C2355       C  0.97262881  0.16711320  0.93948700     0.12600
C2356       C  0.92273398  0.10675247  0.93999024    -0.11800
H2357       H  0.90374647  0.08826895  0.89928831     0.12900
C2358       C  0.96816520  0.17293099  0.85963493    -0.22600
H2359       H  0.98612764  0.19031994  0.89980671     0.08500
C2360       C  0.00517885  0.15502924  0.94793127     0.04800
C2361       C  0.51828058  0.16978813  0.96706368    -0.19800
C2362       C  0.99979471  0.19660898  0.97772222    -0.12100
C2363       C  0.96745980  0.20910519  0.96906409     0.13600
C2364       C  0.95421036  0.19406529  0.95004829    -0.22600
C2365       C  0.52609581  0.12681098  0.93663003    -0.05600
H2366       H  0.54317165  0.16052603  0.97371955     0.15100
C2367       C  0.94657740  0.23847935  0.97928123    -0.15800
H2368       H  0.92944423  0.20355650  0.94332698     0.09400
H2369       H  0.99754694  0.17170219  0.85893113     0.07300
H2370       H  0.95987382  0.20099193  0.85972759     0.08500
H2371       H  0.95774457  0.16065808  0.84473843     0.07500
H2372       H  0.90883960  0.12647867  0.95009862     0.02400
H2373       H  0.94613338  0.09662565  0.94891217     0.02900
H2374       H  0.90434599  0.08437980  0.93711996     0.06400
H2375       H  0.55095243  0.12040098  0.94540797     0.05400
H2376       H  0.53329061  0.13588420  0.92018088    -0.00400
H2377       H  0.51003120  0.10239048  0.93540279     0.01100
H2378       H  0.94391365  0.26058691  0.96763489     0.04700
H2379       H  0.95917154  0.24895682  0.99408541     0.06700
H2380       H  0.91973373  0.22878099  0.98359281     0.07500
C2381       C  0.84195702  0.98638633  0.59164345    -0.22100
C2382       C  0.83334130  0.02125544  0.59676279     0.09900
C2383       C  0.81500032  0.04230163  0.58168081     0.10300
C2384       C  0.80424432  0.02739550  0.56207143    -0.17000
C2385       C  0.81181919  0.49212966  0.55720874    -0.27400
C2386       C  0.83183906  0.47165497  0.57188860     0.18600
C2387       C  0.84396276  0.03517180  0.61802334     0.12600
C2388       C  0.80679620  0.08036334  0.58632874    -0.11800
H2389       H  0.78914267  0.54305253  0.55066785     0.12900
C2390       C  0.84329499  0.43449354  0.56713204    -0.22600
H2391       H  0.85670519  0.97058815  0.60315690     0.08500
C2392       C  0.82108911  0.03315030  0.63594806     0.04800
C2393       C  0.83262128  0.04608088  0.65591893    -0.19800
C2394       C  0.86653777  0.06078166  0.65831144    -0.12100
C2395       C  0.88916209  0.06340990  0.64018178     0.13600
C2396       C  0.87763581  0.05022145  0.62028984    -0.22600
C2397       C  0.78478709  0.51689539  0.63402229    -0.05600
H2398       H  0.81535869  0.04420354  0.66983621     0.15100
C2399       C  0.92514436  0.08066918  0.64105923    -0.15800
H2400       H  0.89493472  0.05193279  0.60637194     0.09400
H2401       H  0.83176705  0.41633178  0.57930206     0.07300
H2402       H  0.87260291  0.93272720  0.56801968     0.08500
H2403       H  0.83516489  0.42558010  0.55087200     0.07500
H2404       H  0.83185586  0.09507280  0.58901560     0.02400
H2405       H  0.79003302  0.08240594  0.60095019     0.02900
H2406       H  0.79242360  0.09305989  0.57274725     0.06400
H2407       H  0.77039905  0.51708635  0.64962962     0.05400
H2408       H  0.78717593  0.48914407  0.62861467    -0.00400
H2409       H  0.76877542  0.53184158  0.62210370     0.01100
H2410       H  0.94587458  0.06101557  0.63704258     0.04700
H2411       H  0.93142039  0.09212163  0.65701309     0.06700
H2412       H  0.92623225  0.10244051  0.62908608     0.07500
C2413       C  0.74082540  0.39845748  0.58619388    -0.22100
C2414       C  0.72502168  0.42351121  0.59958431     0.09900
C2415       C  0.72138331  0.45861834  0.59243965     0.10300
C2416       C  0.73455572  0.46807341  0.57209228    -0.17000
C2417       C  0.75118044  0.44316687  0.55880411    -0.27400
C2418       C  0.75393932  0.40772695  0.56585113     0.18600
C2419       C  0.71364972  0.41253431  0.62134951     0.12600
C2420       C  0.70365564  0.48592494  0.60631342    -0.11800
H2421       H  0.73212347  0.49508577  0.56654383     0.12900
C2422       C  0.77133997  0.37917542  0.55272434    -0.22600
H2423       H  0.74343808  0.37148013  0.59183677     0.08500
C2424       C  0.67930699  0.39935930  0.62518065     0.04800
C2425       C  0.67000229  0.38886536  0.64608682    -0.19800
C2426       C  0.69441207  0.39086232  0.66314225    -0.12100
C2427       C  0.72884569  0.40427360  0.65928123     0.13600
C2428       C  0.73806657  0.41474177  0.63833465    -0.22600
C2429       C  0.65273333  0.39590316  0.60716907    -0.05600
H2430       H  0.64369067  0.37848428  0.64911408     0.15100
C2431       C  0.75615824  0.40875530  0.67682314    -0.15800
H2432       H  0.76444446  0.42490647  0.63522551     0.09400
H2433       H  0.75161095  0.35830727  0.54906641     0.07300
H2434       H  0.79339459  0.36731742  0.56212376     0.08500
H2435       H  0.78252313  0.38873086  0.53730144     0.07500
H2436       H  0.71758229  0.48798879  0.62200433     0.02400
H2437       H  0.67570573  0.47829201  0.60932454     0.02900
H2438       H  0.70379201  0.51231345  0.59853283     0.06400
H2439       H  0.62712464  0.38499940  0.61297379     0.05400
H2440       H  0.66325795  0.37796488  0.59461018    -0.00400
H2441       H  0.64750166  0.42209263  0.59986058     0.01100
H2442       H  0.77950698  0.39194190  0.67330349     0.04700
H2443       H  0.74609245  0.40181062  0.69304456     0.06700
H2444       H  0.76481929  0.43670839  0.67738004     0.07500
C2445       C  0.72286196  0.03071794  0.13688483    -0.22100
C2446       C  0.70453827  0.03761922  0.11774210     0.09900
C2447       C  0.67391445  0.05896774  0.11807062     0.10300
C2448       C  0.66242064  0.07328234  0.13773242    -0.17000
C2449       C  0.68097013  0.06652056  0.15690201    -0.27400
C2450       C  0.71135782  0.04464491  0.15651583     0.18600
C2451       C  0.71806154  0.02177400  0.09764435     0.12600
C2452       C  0.65354901  0.06659517  0.09770921    -0.11800
H2453       H  0.63893957  0.08969411  0.13818986     0.12900
C2454       C  0.73195242  0.03478058  0.17649427    -0.22600
H2455       H  0.74620647  0.51406317  0.13652056     0.08500
C2456       C  0.74536818  0.03800842  0.08571010     0.04800
C2457       C  0.75813545  0.02145765  0.06710540    -0.19800
C2458       C  0.74450295  0.98888586  0.06041392    -0.12100
C2459       C  0.71729843  0.97250904  0.07246432     0.13600
C2460       C  0.70449582  0.98916226  0.09103545    -0.22600
C2461       C  0.76091132  0.07275675  0.09261929    -0.05600
H2462       H  0.77883342  0.03394210  0.05768136     0.15100
C2463       C  0.70094835  0.43787328  0.06608142    -0.15800
H2464       H  0.68373209  0.97668950  0.10041341     0.09400
H2465       H  0.75965701  0.04433115  0.17495114     0.07300
H2466       H  0.73230304  0.50569005  0.17826818     0.08500
H2467       H  0.72068767  0.04583317  0.19149400     0.07500
H2468       H  0.64380012  0.04156636  0.09062165     0.02400
H2469       H  0.67104165  0.08006843  0.08590411     0.02900
H2470       H  0.63031977  0.08382456  0.10078691     0.06400
H2471       H  0.78190983  0.08188292  0.08137955     0.05400
H2472       H  0.77284414  0.07009656  0.10890540    -0.00400
H2473       H  0.73980372  0.09310100  0.09307456     0.01100
H2474       H  0.70553386  0.41814586  0.07903139     0.04700
H2475       H  0.71189675  0.42729274  0.05087096     0.06700
H2476       H  0.67191632  0.94137652  0.06377048     0.07500
C2477       C  0.62827623  0.16370937  0.41168052    -0.22100
C2478       C  0.59588908  0.15165804  0.42014773     0.09900
C2479       C  0.57492537  0.12893790  0.40724114     0.10300
C2480       C  0.58502252  0.12235128  0.38591315    -0.17000
C2481       C  0.61877886  0.13177768  0.37802814    -0.27400
C2482       C  0.64158211  0.15097315  0.39204755     0.18600
C2483       C  0.58392629  0.16450996  0.44180961     0.12600
C2484       C  0.54282406  0.10934798  0.41550598    -0.11800
H2485       H  0.56654645  0.10812995  0.37580985     0.12900
C2486       C  0.68078244  0.15585844  0.38825500    -0.22600
H2487       H  0.64463467  0.18133970  0.42114746     0.08500
C2488       C  0.60684158  0.16694618  0.45996190     0.04800
C2489       C  0.59484175  0.18381531  0.47871284    -0.19800
C2490       C  0.55923014  0.19387741  0.48108479    -0.12100
C2491       C  0.53525250  0.18579795  0.46427890     0.13600
C2492       C  0.54851396  0.17529730  0.44427387    -0.22600
C2493       C  0.64330962  0.15074930  0.46075590    -0.05600
H2494       H  0.61326630  0.18809478  0.49187810     0.15100
C2495       C  0.49567180  0.18484388  0.46727550    -0.15800
H2496       H  0.53032192  0.17363901  0.43079582     0.09400
H2497       H  0.69556109  0.14946809  0.40326576     0.07300
H2498       H  0.68640384  0.18366132  0.38382638     0.08500
H2499       H  0.69146489  0.13774303  0.37591872     0.07500
H2500       H  0.51851592  0.11963954  0.40759551     0.02400
H2501       H  0.53990222  0.11074240  0.43323733     0.02900
H2502       H  0.54544995  0.08092315  0.41161649     0.06400
H2503       H  0.64556203  0.13381832  0.47532082     0.05400
H2504       H  0.66365394  0.17184058  0.46169124    -0.00400
H2505       H  0.64894977  0.13349542  0.44682185     0.01100
H2506       H  0.48267990  0.20269398  0.45551568     0.04700
H2507       H  0.48747633  0.19180306  0.48387253     0.06700
H2508       H  0.48601223  0.15768098  0.46416954     0.07500
C2509       C  0.83375892  0.03297177  0.40162284    -0.22100
C2510       C  0.85681776  0.03046118  0.41922714     0.09900
C2511       C  0.89197002  0.04279500  0.41728244     0.10300
C2512       C  0.90289078  0.05857566  0.39787102    -0.17000
C2513       C  0.87967728  0.06151423  0.38022833    -0.27400
C2514       C  0.84489959  0.04747679  0.38196644     0.18600
C2515       C  0.84297711  0.01579169  0.43970325     0.12600
C2516       C  0.91798885  0.03877507  0.43555460    -0.11800
H2517       H  0.92976876  0.06840939  0.39635765     0.12900
C2518       C  0.81924115  0.04564612  0.36331941    -0.22600
H2519       H  0.80694607  0.02290890  0.40313697     0.08500
C2520       C  0.82889548  0.03810603  0.45563474     0.04800
C2521       C  0.81484335  0.02332826  0.47446864    -0.19800
C2522       C  0.81351432  0.48662274  0.47761565    -0.12100
C2523       C  0.82845277  0.46424346  0.46181339     0.13600
C2524       C  0.84257648  0.47916309  0.44289339    -0.22600
C2525       C  0.82774315  0.07748146  0.45248959    -0.05600
H2526       H  0.80363820  0.04053142  0.48660342     0.15100
C2527       C  0.83099208  0.42490184  0.46460590    -0.15800
H2528       H  0.85361949  0.46214654  0.43060464     0.09400
H2529       H  0.79570759  0.06219862  0.36683426     0.07300
H2530       H  0.81043096  0.01796000  0.36111852     0.08500
H2531       H  0.83074284  0.05418146  0.34777581     0.07500
H2532       H  0.92114916  0.01042212  0.43955504     0.02400
H2533       H  0.90832640  0.05292333  0.45001599     0.02900
H2534       H  0.94446406  0.04953894  0.43129776     0.06400
H2535       H  0.81547075  0.09100336  0.46646789     0.05400
H2536       H  0.81188832  0.08390118  0.43791645    -0.00400
H2537       H  0.85496213  0.08801919  0.45045955     0.01100
H2538       H  0.81512767  0.41165588  0.45189709     0.04700
H2539       H  0.82153028  0.41580294  0.48056894     0.06700
H2540       H  0.85908981  0.41659975  0.46307609     0.07500
C2541       C  0.60882255  0.25834801  0.08188206    -0.22100
C2542       C  0.58650856  0.27647516  0.09605719     0.09900
C2543       C  0.55087449  0.28267399  0.09032603     0.10300
C2544       C  0.53826769  0.27038178  0.07047140    -0.17000
C2545       C  0.56022679  0.25126545  0.05649612    -0.27400
C2546       C  0.59605607  0.24522960  0.06224402     0.18600
C2547       C  0.60049262  0.28726959  0.11730053     0.12600
C2548       C  0.52604006  0.30165151  0.10533101    -0.11800
H2549       H  0.51094355  0.27516882  0.06594559     0.12900
C2550       C  0.62121954  0.22405374  0.04857153    -0.22600
H2551       H  0.63612689  0.25350414  0.08648577     0.08500
C2552       C  0.60209415  0.26325564  0.13464617     0.04800
C2553       C  0.61384618  0.27499460  0.15482774    -0.19800
C2554       C  0.62461879  0.31003039  0.15796906    -0.12100
C2555       C  0.62431207  0.33373968  0.14026523     0.13600
C2556       C  0.61172760  0.32209723  0.12021981    -0.22600
C2557       C  0.59111646  0.22536684  0.13185641    -0.05600
H2558       H  0.61427279  0.25681390  0.16833903     0.15100
C2559       C  0.63792608  0.37101843  0.14166533    -0.15800
H2560       H  0.61091534  0.34024870  0.10669009     0.09400
H2561       H  0.63183126  0.20171865  0.05819563     0.07300
H2562       H  0.64363079  0.24103654  0.04338435     0.08500
H2563       H  0.60863715  0.21275917  0.03402612     0.07500
H2564       H  0.53594028  0.32874821  0.10830658     0.02400
H2565       H  0.52437617  0.28729198  0.12090217     0.02900
H2566       H  0.49885964  0.30359559  0.09852605     0.06400
H2567       H  0.59287975  0.21037041  0.14721496     0.05400
H2568       H  0.60858721  0.21240929  0.11988508    -0.00400
H2569       H  0.56340736  0.22406070  0.12601638     0.01100
H2570       H  0.65901018  0.37505186  0.12942296     0.04700
H2571       H  0.64960304  0.37741898  0.15755786     0.06700
H2572       H  0.61594711  0.38970699  0.13834947     0.07500
C2573       C  0.95924395  0.19441440  0.08591245    -0.22100
C2574       C  0.98173194  0.17337740  0.09848974     0.09900
C2575       C  0.51565822  0.16438245  0.09070506     0.10300
C2576       C  0.52623792  0.17653188  0.07034828    -0.17000
C2577       C  0.00382300  0.19777584  0.05780268    -0.27400
C2578       C  0.97004145  0.20720039  0.06576960     0.18600
C2579       C  0.96908601  0.16089833  0.11972982     0.12600
C2580       C  0.54094029  0.14262685  0.10402717    -0.11800
H2581       H  0.55231008  0.16989539  0.06426961     0.12900
C2582       C  0.94526505  0.23164229  0.05389476    -0.22600
H2583       H  0.93324685  0.20130799  0.09200838     0.08500
C2584       C  0.96632937  0.18381264  0.13752145     0.04800
C2585       C  0.95515646  0.17031882  0.15743733    -0.19800
C2586       C  0.94580086  0.13470007  0.15982717    -0.12100
C2587       C  0.94703722  0.11215822  0.14167629     0.13600
C2588       C  0.95926436  0.12549080  0.12196086    -0.22600
C2589       C  0.97538345  0.22235401  0.13556950    -0.05600
H2590       H  0.95377579  0.18763913  0.17128190     0.15100
C2591       C  0.93444373  0.07444945  0.14215905    -0.15800
H2592       H  0.96054527  0.10826542  0.10806052     0.09400
H2593       H  0.93940338  0.25482556  0.06417406     0.07300
H2594       H  0.92009599  0.21766611  0.05030513     0.08500
H2595       H  0.95632167  0.24164148  0.03852516     0.07500
H2596       H  0.52946999  0.11616566  0.10709366     0.02400
H2597       H  0.54600266  0.15591814  0.11965154     0.02900
H2598       H  0.56677352  0.13899401  0.09575797     0.06400
H2599       H  0.97297857  0.23620308  0.15124812     0.05400
H2600       H  0.95720260  0.23535541  0.12395627    -0.00400
H2601       H  0.50297116  0.22533015  0.12981612     0.01100
H2602       H  0.91376897  0.07064610  0.12961728     0.04700
H2603       H  0.92251690  0.06666942  0.15774875     0.06700
H2604       H  0.95701223  0.05659528  0.13869020     0.07500
C2605       C  0.72261188  0.43838052  0.44311397    -0.22100
C2606       C  0.71258066  0.40265105  0.44428752     0.09900
C2607       C  0.72089339  0.38363861  0.46335363     0.10300
C2608       C  0.74088779  0.40004106  0.47956615    -0.17000
C2609       C  0.74852959  0.43636290  0.47901433    -0.27400
C2610       C  0.73708241  0.45607387  0.46090859     0.18600
C2611       C  0.69427183  0.38636513  0.42522599     0.12600
C2612       C  0.70739698  0.34698573  0.46805664    -0.11800
H2613       H  0.74866303  0.38463574  0.49353658     0.12900
C2614       C  0.73638105  0.49571617  0.46035979    -0.22600
H2615       H  0.71676544  0.45340787  0.42867527     0.08500
C2616       C  0.66711754  0.40406229  0.41370461     0.04800
C2617       C  0.65687552  0.39162053  0.39335037    -0.19800
C2618       C  0.66829668  0.35865913  0.38543626    -0.12100
C2619       C  0.68971151  0.33778520  0.39937663     0.13600
C2620       C  0.70541525  0.35335273  0.41755650    -0.22600
C2621       C  0.64758865  0.43562243  0.42245584    -0.05600
H2622       H  0.63974286  0.40838873  0.38388422     0.15100
C2623       C  0.69445515  0.29857141  0.39682422    -0.15800
H2624       H  0.72548681  0.33873041  0.42628460     0.09400
H2625       H  0.70909362  0.50477579  0.45655015     0.07300
H2626       H  0.75453166  0.50555533  0.44762243     0.08500
H2627       H  0.74341223  0.50760306  0.47606551     0.07500
H2628       H  0.72986859  0.32811391  0.46812033     0.02400
H2629       H  0.68689504  0.33804377  0.45652490     0.02900
H2630       H  0.69465332  0.34653472  0.48418554     0.06400
H2631       H  0.61861007  0.43055420  0.42177405     0.05400
H2632       H  0.65364758  0.45923558  0.41252504    -0.00400
H2633       H  0.65395118  0.44111638  0.43955602     0.01100
H2634       H  0.72249930  0.29245728  0.39293945     0.04700
H2635       H  0.67661836  0.28727253  0.38442575     0.06700
H2636       H  0.68748531  0.28521361  0.41219975     0.07500
C2637       C  0.81031480  0.38424137  0.08471955    -0.22100
C2638       C  0.83230068  0.40574117  0.09728793     0.09900
C2639       C  0.83814261  0.44104202  0.09106570     0.10300
C2640       C  0.82183804  0.45408755  0.07231699    -0.17000
C2641       C  0.79971499  0.43265351  0.05971367    -0.27400
C2642       C  0.79389647  0.39721132  0.06599994     0.18600
C2643       C  0.84774327  0.39115860  0.11740590     0.12600
C2644       C  0.86153392  0.46488299  0.10425052    -0.11800
H2645       H  0.82658825  0.48106148  0.06734060     0.12900
C2646       C  0.77020515  0.37245794  0.05361596    -0.22600
H2647       H  0.80566471  0.35722807  0.08968368     0.08500
C2648       C  0.82888404  0.39249855  0.13698515     0.04800
C2649       C  0.84450188  0.37889580  0.15575299    -0.19800
C2650       C  0.87859168  0.36400937  0.15546119    -0.12100
C2651       C  0.89729007  0.36212859  0.13573882     0.13600
C2652       C  0.88159475  0.37585385  0.11693338    -0.22600
C2653       C  0.79242472  0.40861667  0.13807334    -0.05600
H2654       H  0.83026147  0.38043158  0.17089677     0.15100
C2655       C  0.93332421  0.34529576  0.13389408    -0.15800
H2656       H  0.89584237  0.37460884  0.10178196     0.09400
H2657       H  0.74860259  0.36295928  0.06429709     0.07300
H2658       H  0.78588710  0.34947550  0.04806269     0.08500
H2659       H  0.75774826  0.38483628  0.03931723     0.07500
H2660       H  0.88870394  0.45375450  0.10511362     0.02400
H2661       H  0.85074316  0.46734315  0.12081241     0.02900
H2662       H  0.86329025  0.49170669  0.09713595     0.06400
H2663       H  0.78143961  0.40767489  0.15466600     0.05400
H2664       H  0.77407663  0.39405781  0.12729049    -0.00400
H2665       H  0.79355207  0.43661815  0.13291075     0.01100
H2666       H  0.93216100  0.32342271  0.12205667     0.04700
H2667       H  0.94296390  0.33420127  0.14936140     0.06700
H2668       H  0.95283229  0.36514666  0.12820331     0.07500
C2669       C  0.97976553  0.26626215  0.40232806    -0.22100
C2670       C  0.98148636  0.29329279  0.41764375     0.09900
C2671       C  0.97031474  0.32753629  0.41207482     0.10300
C2672       C  0.95597268  0.33362573  0.39153834    -0.17000
C2673       C  0.95328925  0.30642496  0.37626726    -0.27400
C2674       C  0.96619146  0.27247736  0.38156656     0.18600
C2675       C  0.99375501  0.28466669  0.43968259     0.12600
C2676       C  0.97403863  0.35766582  0.42768689    -0.11800
H2677       H  0.94685969  0.35983462  0.38731763     0.12900
C2678       C  0.96707454  0.24316749  0.36522990    -0.22600
H2679       H  0.98899974  0.24015936  0.40671591     0.08500
C2680       C  0.96932277  0.27599859  0.45603629     0.04800
C2681       C  0.98195891  0.26581171  0.47635220    -0.19800
C2682       C  0.51849285  0.26240360  0.48037976    -0.12100
C2683       C  0.54295746  0.27311763  0.46433143     0.13600
C2684       C  0.53021908  0.28382238  0.44407265    -0.22600
C2685       C  0.93000536  0.27550224  0.45168098    -0.05600
H2686       H  0.96321205  0.25786979  0.48868423     0.15100
C2687       C  0.58241166  0.27392171  0.46807913    -0.15800
H2688       H  0.54883702  0.29115960  0.43152781     0.09400
H2689       H  0.93981513  0.23550350  0.36052355     0.07300
H2690       H  0.98032697  0.21928181  0.37174971     0.08500
H2691       H  0.98195922  0.25187009  0.35073334     0.07500
H2692       H  0.50236845  0.36108878  0.43207142     0.02400
H2693       H  0.95856189  0.35231368  0.44252090     0.02900
H2694       H  0.96441503  0.38283306  0.42063853     0.06400
H2695       H  0.91470577  0.26730725  0.46613356     0.05400
H2696       H  0.92408731  0.25660223  0.43852705    -0.00400
H2697       H  0.92078664  0.30209255  0.44682503     0.01100
H2698       H  0.59567692  0.25557367  0.45675247     0.04700
H2699       H  0.58981541  0.26653953  0.48477879     0.06700
H2700       H  0.59252208  0.30098494  0.46512513     0.07500
C2701       C  0.93898749  0.81515491  0.35459349     0.03500
C2702       C  0.95433469  0.84279536  0.34286167    -0.12600
C2703       C  0.94019414  0.85343366  0.32298146     0.01000
C2704       C  0.91092541  0.83553455  0.31452504    -0.11200
C2705       C  0.89527432  0.80761246  0.32593922     0.03500
C2706       C  0.90910353  0.79782875  0.34615458    -0.10600
H2707       H  0.97712726  0.85638548  0.34950449     0.09100
H2708       H  0.90016184  0.84343145  0.29907210     0.06600
H2709       H  0.89619856  0.77749693  0.35555119     0.06500
C2710       C  0.89380084  0.85234787  0.17633498     0.03500
C2711       C  0.92136009  0.87175927  0.18595123    -0.12600
C2712       C  0.92977089  0.86656688  0.20778652     0.01000
C2713       C  0.91108501  0.84131340  0.21978237    -0.11200
C2714       C  0.88466510  0.82074314  0.21012709     0.03500
C2715       C  0.87629787  0.82617529  0.18834121    -0.10600
H2716       H  0.93397145  0.89288919  0.17701619     0.09100
H2717       H  0.91654140  0.83828096  0.23685285     0.06600
H2718       H  0.85434450  0.81198457  0.18114451     0.06500
C2719       C  0.66045597  0.84867511  0.36229569     0.03500
C2720       C  0.68424022  0.82737768  0.35050523    -0.12600
C2721       C  0.67930215  0.82098239  0.32847258     0.01000
C2722       C  0.65301365  0.83943728  0.31726448    -0.11200
C2723       C  0.62954077  0.86152657  0.32829732     0.03500
C2724       C  0.63188843  0.86414908  0.35086088    -0.10600
H2725       H  0.70794397  0.81703141  0.35794261     0.09100
H2726       H  0.65090789  0.83673287  0.29991215     0.06600
H2727       H  0.61258484  0.88019219  0.35910275     0.06500
C2728       C  0.93472807  0.62226777  0.18143311     0.03500
C2729       C  0.95301621  0.59501405  0.19181861    -0.12600
C2730       C  0.94215141  0.58291509  0.21218296     0.01000
C2731       C  0.91323411  0.59922630  0.22243208    -0.11200
C2732       C  0.89546909  0.62742362  0.21244719     0.03500
C2733       C  0.90634680  0.63854804  0.19188754    -0.10600
H2734       H  0.97526934  0.58295528  0.18369703     0.09100
H2735       H  0.90481314  0.59025232  0.23821380     0.06600
H2736       H  0.89255730  0.65965128  0.18366835     0.06500
C2737       C  0.95571644  0.88383302  0.31158859     0.42800
N2738       N  0.48876081  0.92848047  0.30537919     0.01700
C2739       C  0.49265560  0.53518146  0.21492285    -0.06100
H2740       H  0.50157498  0.90237676  0.19728565     0.07200
C2741       C  0.61899933  0.90245106  0.24341313    -0.06500
Co2742     Co  0.96708708  0.96844113  0.26594870     0.74200
N2743       N  0.49430647  0.93143282  0.22692124    -0.25700
Co2744     Co  0.53509816  0.96861029  0.22857532     0.74100
C2745       C  0.60778390  0.88604081  0.22325931     0.42900
N2746       N  0.59251469  0.92728522  0.29421862     0.01400
N2747       N  0.57343485  0.92936347  0.23023384     0.01500
N2748       N  0.94835377  0.53447328  0.23951856    -0.46500
H2749       H  0.92123891  0.89531896  0.28156473     0.07200
N2750       N  0.96908811  0.93096205  0.24163059     0.01700
N2751       N  0.57558136  0.50595676  0.23078201     0.01500
C2752       C  0.61271947  0.54707244  0.22359986     0.43100
N2753       N  0.56706955  0.92777457  0.30875549    -0.25100
C2754       C  0.94223730  0.53131792  0.29363947    -0.06000
N2755       N  0.48379436  0.90210891  0.31895650    -0.46200
N2756       N  0.58390270  0.52992920  0.21606851    -0.46500
C2757       C  0.95186441  0.54620922  0.31443009     0.42900
N2758       N  0.97071714  0.50800788  0.24254872     0.01700
N2759       N  0.56760605  0.50427847  0.30924759    -0.25100
N2760       N  0.96551360  0.92893854  0.28947141    -0.25600
N2761       N  0.59359872  0.50449776  0.29503037     0.01400
H2762       H  0.55615221  0.53619203  0.33706811     0.07300
H2763       H  0.64517782  0.53553455  0.25422688     0.07300
N2764       N  0.49674886  0.50785775  0.22835802    -0.25700
N2765       N  0.59630706  0.92893952  0.24635624    -0.25300
N2766       N  0.48842376  0.50499661  0.30660816     0.01700
C2767       C  0.95353477  0.89102647  0.21919086     0.43100
C2768       C  0.57326607  0.90219362  0.32327330    -0.06600
N2769       N  0.59804978  0.50550409  0.24710109    -0.25300
H2770       H  0.64118743  0.89647508  0.25383041     0.07300
N2771       N  0.94422866  0.90732029  0.23759004    -0.46500
H2772       H  0.55764954  0.89708153  0.33755239     0.07300
C2773       C  0.60585519  0.54705469  0.31643293     0.43000
C2774       C  0.94332118  0.90158682  0.29200041    -0.06000
Co2775     Co  0.52785242  0.96645633  0.30794111     0.73800
N2776       N  0.61631775  0.90239869  0.29800348    -0.46200
C2777       C  0.96056280  0.55285009  0.22238726     0.43200
N2778       N  0.48031504  0.52817032  0.32179394    -0.46200
Co2779     Co  0.59581638  0.96657408  0.27070895     0.73900
C2780       C  0.62230176  0.53083492  0.24410954    -0.06600
C2781       C  0.48655970  0.90724952  0.21180934    -0.06100
N2782       N  0.96600395  0.50582023  0.29028179    -0.25600
N2783       N  0.57949567  0.90425322  0.21588903    -0.46400
H2784       H  0.50985841  0.54139623  0.20152016     0.07200
C2785       C  0.57301897  0.53020345  0.32347827    -0.06500
Cl2786     Cl  0.53147612  0.96755657  0.26827631    -0.49500
C2787       C  0.60580734  0.88507930  0.31594127     0.43000
H2788       H  0.91949244  0.53686775  0.28356427     0.07200
N2789       N  0.61701694  0.52981811  0.29867311    -0.46200
C2790       C  0.63512121  0.82081095  0.18001213     0.03500
C2791       C  0.61641515  0.84754366  0.19077878    -0.12600
C2792       C  0.62572764  0.85699667  0.21189345     0.01000
C2793       C  0.65321242  0.83896345  0.22227981    -0.11200
C2794       C  0.67207126  0.81231295  0.21186896     0.03500
C2795       C  0.66280598  0.80311488  0.19070495    -0.10600
H2796       H  0.59484681  0.86097144  0.18265183     0.09100
H2797       H  0.65986649  0.84555224  0.23870494     0.06600
H2798       H  0.67720183  0.78247085  0.18245492     0.06500
C2799       C  0.89312701  0.57688789  0.35980349     0.03500
C2800       C  0.92069164  0.55972935  0.34883366    -0.12600
C2801       C  0.92865527  0.56880759  0.32747962     0.01000
C2802       C  0.90964203  0.59586203  0.31736378    -0.11200
C2803       C  0.88310637  0.61428569  0.32839246     0.03500
C2804       C  0.87558777  0.60542605  0.34988967    -0.10600
H2805       H  0.93360152  0.53721243  0.35621025     0.09100
H2806       H  0.91452895  0.60163085  0.30049893     0.06600
H2807       H  0.85376138  0.61814308  0.35811879     0.06500
C2808       C  0.62901916  0.62034841  0.35562827     0.03500
C2809       C  0.65200114  0.64053993  0.34258857    -0.12600
C2810       C  0.66422477  0.62755901  0.32273223     0.01000
C2811       C  0.64897703  0.59684865  0.31424981    -0.11200
C2812       C  0.62353269  0.57806559  0.32598391     0.03500
C2813       C  0.61514618  0.58887467  0.34694549    -0.10600
H2814       H  0.66143917  0.66585982  0.34811828     0.09100
H2815       H  0.65678767  0.58746274  0.29850672     0.06600
H2816       H  0.59811023  0.57218047  0.35653635     0.06500
C2817       C  0.66771471  0.58122504  0.17734192     0.03500
C2818       C  0.68581839  0.60924999  0.18717995    -0.12600
C2819       C  0.67983386  0.61697142  0.20896186     0.01000
C2820       C  0.65510417  0.59702828  0.22066348    -0.11200
C2821       C  0.63560707  0.57024901  0.21063189     0.03500
C2822       C  0.64166674  0.56273107  0.18883685    -0.10600
H2823       H  0.70681306  0.62264471  0.17850587     0.09100
H2824       H  0.65163230  0.60182862  0.23775310     0.06600
H2825       H  0.62853330  0.54046427  0.18137806     0.06500
C2826       C  0.86254144  0.79742295  0.22355272     0.42800
N2827       N  0.82137561  0.76051858  0.23133830     0.01700
C2828       C  0.71870429  0.76396816  0.32442611    -0.06100
H2829       H  0.85193609  0.74116882  0.33792439     0.07200
C2830       C  0.84406105  0.62826767  0.29510135    -0.06500
Co2831     Co  0.78252863  0.78177811  0.27113392     0.74200
N2832       N  0.81970917  0.75289943  0.31005507    -0.25700
Co2833     Co  0.78023790  0.71467023  0.30906961     0.74100
C2834       C  0.85919663  0.63732232  0.31592745     0.42900
N2835       N  0.82140971  0.65638712  0.24384975     0.01400
N2836       N  0.81796929  0.67416765  0.30822241     0.01500
N2837       N  0.72021748  0.80585279  0.29842623    -0.46500
H2838       H  0.85181525  0.82987317  0.25411016     0.07200
N2839       N  0.82057343  0.77840278  0.29554243     0.01700
N2840       N  0.74046237  0.67676960  0.30638207     0.01500
C2841       C  0.69426690  0.64478956  0.31153941     0.43100
N2842       N  0.82138228  0.68224643  0.22958675    -0.25100
C2843       C  0.71834421  0.80616853  0.24339314    -0.06000
N2844       N  0.84493587  0.76877483  0.21631074    -0.46200
N2845       N  0.71302993  0.67224706  0.31942549    -0.46500
C2846       C  0.70161271  0.79489712  0.22328813     0.42900
N2847       N  0.74335548  0.78040347  0.29462537     0.01700
N2848       N  0.74467303  0.68127141  0.22810816    -0.25100
N2849       N  0.82156419  0.78288961  0.24756595    -0.25600
N2850       N  0.74386565  0.65637831  0.24296073     0.01400
H2851       H  0.71567380  0.68836105  0.19830746     0.07300
H2852       H  0.70699461  0.61050031  0.28186150     0.07300
N2853       N  0.74302096  0.75551080  0.30951595    -0.25700
N2854       N  0.81865308  0.65216114  0.29180772    -0.25300
N2855       N  0.74439243  0.76000857  0.23078502     0.01700
C2856       C  0.86416132  0.78962016  0.31662721     0.43100
C2857       C  0.84823024  0.67773280  0.21589711    -0.06600
N2858       N  0.74120740  0.65362096  0.29053638    -0.25300
H2859       H  0.84952961  0.60589019  0.28487126     0.07300
N2860       N  0.84674956  0.80090292  0.29889119    -0.46500
H2861       H  0.85423758  0.69480850  0.20241472     0.07300
C2862       C  0.70345751  0.64116134  0.22060478     0.43000
C2863       C  0.84699119  0.80691488  0.24423399    -0.06000
Co2864     Co  0.78289072  0.72106720  0.22951869     0.73800
N2865       N  0.84747752  0.63356094  0.24052120    -0.46200
C2866       C  0.70345181  0.79718834  0.31684499     0.43200
N2867       N  0.71929104  0.76622264  0.21631125    -0.46200
Co2868     Co  0.78138901  0.65391787  0.26730912     0.73900
C2869       C  0.71311479  0.63223467  0.29245813    -0.06600
C2870       C  0.84626799  0.75772813  0.32414073    -0.06100
N2871       N  0.74451253  0.78308098  0.24667663    -0.25600
N2872       N  0.84136014  0.66569498  0.32340243    -0.46400
H2873       H  0.71353270  0.74956104  0.33915308     0.07200
C2874       C  0.72024276  0.67367971  0.21300839    -0.06500
Cl2875     Cl  0.78176567  0.71787487  0.26926608    -0.49500
C2876       C  0.86553507  0.64545970  0.22310842     0.43000
H2877       H  0.71269037  0.82855565  0.25355422     0.07200
N2878       N  0.71980273  0.63191675  0.23904885    -0.46200
C2879       C  0.76571129  0.95224567  0.49849823     0.02700
C2880       C  0.79678992  0.97368265  0.49788818     0.02600
C2881       C  0.81123545  0.98609785  0.51736849    -0.17900
C2882       C  0.79645212  0.97707546  0.53727853     0.02700
C2883       C  0.76644230  0.95504777  0.53799102     0.02600
C2884       C  0.75100687  0.94366384  0.51871130    -0.17900
H2885       H  0.72736914  0.92744147  0.51955397     0.04700
H2886       H  0.83435068  0.50309810  0.51704964     0.04700
C2887       C  0.51728668  0.71142441  0.03703342     0.02700
C2888       C  0.54448186  0.73700177  0.03642145     0.02600
C2889       C  0.55616506  0.74986377  0.01650914    -0.17900
C2890       C  0.54189088  0.73697263  0.99724839     0.02700
C2891       C  0.51505407  0.71113490  0.99779643     0.02600
C2892       C  0.00298690  0.69855306  0.01771788    -0.17900
H2893       H  0.98233811  0.67868873  0.01820747     0.04700
H2894       H  0.57670430  0.76984818  0.01599076     0.04700
C2895       C  0.52945101  0.74491740  0.50083395     0.02700
C2896       C  0.54821243  0.71241729  0.50120559     0.02600
C2897       C  0.55729727  0.69744177  0.52121554    -0.17900
C2898       C  0.54605854  0.71256427  0.54065795     0.02700
C2899       C  0.52531931  0.74347515  0.54010599     0.02600
C2900       C  0.51793027  0.75967997  0.52032665    -0.17900
H2901       H  0.00216784  0.78355943  0.52007449     0.04700
H2902       H  0.57267036  0.67334175  0.52171419     0.04700
C2903       C  0.78434298  0.94761154  0.03963427     0.02700
C2904       C  0.75790818  0.97392376  0.04004718     0.02600
C2905       C  0.74403097  0.98701277  0.02067638    -0.17900
C2906       C  0.75632480  0.97485965  0.00074679     0.02700
C2907       C  0.78411201  0.94975223  0.00027406     0.02600
C2908       C  0.79729933  0.93598823  0.01971166    -0.17900
H2909       H  0.81823978  0.91643655  0.01935159     0.04700
H2910       H  0.72343001  0.50691915  0.02113941     0.04700
C2911       C  0.87564697  0.87210830  0.85599055     0.03500
C2912       C  0.85967340  0.84442176  0.84468873    -0.12600
C2913       C  0.87137685  0.83541223  0.82399282     0.01000
C2914       C  0.89921278  0.85446108  0.81463084    -0.11200
C2915       C  0.91513838  0.88254813  0.82565396     0.03500
C2916       C  0.90292492  0.89158453  0.84626452    -0.10600
H2917       H  0.83845773  0.82961442  0.85223112     0.09100
H2918       H  0.90846033  0.84758436  0.79867924     0.06600
H2919       H  0.91490675  0.91319691  0.85499700     0.06500
C2920       C  0.91767121  0.61172424  0.85952038     0.03500
C2921       C  0.93535811  0.58392993  0.84920567    -0.12600
C2922       C  0.92736824  0.57572594  0.82770276     0.01000
C2923       C  0.90095691  0.59466924  0.81686536    -0.11200
C2924       C  0.88251662  0.62172160  0.82718643     0.03500
C2925       C  0.89052672  0.62988630  0.84867678    -0.10600
H2926       H  0.95737783  0.57103806  0.85721163     0.09100
H2927       H  0.89581882  0.58938221  0.79997445     0.06600
H2928       H  0.87798472  0.65228329  0.85631928     0.06500
C2929       C  0.68030154  0.57009688  0.85645331     0.03500
C2930       C  0.65335790  0.55266934  0.84503328    -0.12600
C2931       C  0.64358033  0.56398202  0.82428440     0.01000
C2932       C  0.66173890  0.59235720  0.81482693    -0.11200
C2933       C  0.68923514  0.60950590  0.82585519     0.03500
C2934       C  0.69848829  0.59812423  0.84666529    -0.10600
H2935       H  0.63956255  0.53083798  0.85257524     0.09100
H2936       H  0.65456912  0.60120060  0.79880682     0.06600
H2937       H  0.71922765  0.61146542  0.85555229     0.06500
C2938       C  0.63985930  0.83453676  0.85919258     0.03500
C2939       C  0.62263674  0.86219902  0.84853111    -0.12600
C2940       C  0.63080834  0.86998142  0.82703420     0.01000
C2941       C  0.65691551  0.85026988  0.81637028    -0.11200
C2942       C  0.67584531  0.82390403  0.82738546     0.03500
C2943       C  0.66729311  0.81622541  0.84889015    -0.10600
H2944       H  0.60085323  0.87560607  0.85639487     0.09100
H2945       H  0.66214963  0.85510999  0.79943651     0.06600
H2946       H  0.67990752  0.79425016  0.85702296     0.06500
C2947       C  0.64437840  0.60637877  0.67721813     0.03500
C2948       C  0.67068043  0.62523814  0.68835941    -0.12600
C2949       C  0.67749586  0.61796944  0.71016694     0.01000
C2950       C  0.65824735  0.59136538  0.72063998    -0.11200
C2951       C  0.63304422  0.57145123  0.70939966     0.03500
C2952       C  0.62658399  0.57866590  0.68761426    -0.10600
H2953       H  0.68343988  0.64752453  0.68063584     0.09100
H2954       H  0.66210371  0.58684239  0.73774803     0.06600
H2955       H  0.60543947  0.56495488  0.67927108     0.06500
C2956       C  0.87775974  0.57223484  0.68002681     0.03500
C2957       C  0.90534648  0.55477559  0.69065509    -0.12600
C2958       C  0.91667603  0.56571028  0.71115999     0.01000
C2959       C  0.89978237  0.59446073  0.72102756    -0.11200
C2960       C  0.87139421  0.61160911  0.71067985     0.03500
C2961       C  0.86057402  0.60023181  0.69016843    -0.10600
H2962       H  0.91809700  0.53293017  0.68262776     0.09100
H2963       H  0.90830403  0.60307913  0.73684748     0.06600
H2964       H  0.83916745  0.61336597  0.68176428     0.06500
C2965       C  0.85482103  0.80582283  0.81242387     0.42800
N2966       N  0.82077174  0.76221881  0.80551922     0.01700
C2967       C  0.82019539  0.65818924  0.71391522    -0.06100
H2968       H  0.80726712  0.78985076  0.69744446     0.07200
C2969       C  0.69041453  0.78625089  0.74359480    -0.06500
Co2970     Co  0.84345949  0.72337113  0.76590132     0.74200
N2971       N  0.81526124  0.76068591  0.72705451    -0.25700
Co2972     Co  0.77561326  0.72230208  0.72835047     0.74100
C2973       C  0.70213087  0.80414145  0.72397688     0.42900
N2974       N  0.71640514  0.76016984  0.79382988     0.01400
N2975       N  0.73626848  0.76032720  0.73020895     0.01500
N2976       N  0.86446070  0.65899094  0.73862389    -0.46500
H2977       H  0.88916848  0.79491111  0.78239638     0.07200
N2978       N  0.84049739  0.76152350  0.74178579     0.01700
N2979       N  0.73626278  0.68359487  0.73018906     0.01500
C2980       C  0.70019625  0.64158620  0.72293832     0.43100
N2981       N  0.74161844  0.76052816  0.80857369    -0.25100
C2982       C  0.86931405  0.66026734  0.79351944    -0.06000
N2983       N  0.82636856  0.78775473  0.81957255    -0.46200
N2984       N  0.72841664  0.65971951  0.71535195    -0.46500
C2985       C  0.85972073  0.64497645  0.81426179     0.42900
N2986       N  0.84112286  0.68444529  0.74211262     0.01700
N2987       N  0.74402819  0.68408897  0.80883978    -0.25100
N2988       N  0.84407481  0.76214850  0.78966023    -0.25600
N2989       N  0.71825678  0.68309255  0.79446156     0.01400
H2990       H  0.75633082  0.65236298  0.83672316     0.07300
H2991       H  0.66787785  0.65155199  0.75371030     0.07300
N2992       N  0.81512744  0.68445392  0.72786210    -0.25700
N2993       N  0.71314816  0.75961031  0.74614800    -0.25300
N2994       N  0.82279720  0.68582758  0.80644322     0.01700
C2995       C  0.85494491  0.80224354  0.71944557     0.43100
C2996       C  0.73370243  0.78533390  0.82322377    -0.06600
N2997       N  0.71399070  0.68297630  0.74656040    -0.25300
H2998       H  0.66844998  0.79195060  0.75418470     0.07300
N2999       N  0.86476409  0.78583223  0.73779376    -0.46500
H3000       H  0.74852268  0.79075867  0.83777622     0.07300
C3001       C  0.70744469  0.63975568  0.81571798     0.43000
C3002       C  0.86672027  0.78891033  0.79257862    -0.06000
Co3003     Co  0.78241226  0.72323655  0.80780100     0.73800
N3004       N  0.69132816  0.78377024  0.79745732    -0.46200
C3005       C  0.85288984  0.64129947  0.72108091     0.43200
N3006       N  0.83103505  0.66247811  0.82157020    -0.46200
Co3007     Co  0.71478347  0.72137467  0.77025926     0.73900
C3008       C  0.69050193  0.65704276  0.74355248    -0.06600
C3009       C  0.82233979  0.78528042  0.71202385    -0.06100
N3010       N  0.84523111  0.68551987  0.79013677    -0.25600
N3011       N  0.73062623  0.78654264  0.71649756    -0.46400
H3012       H  0.80323457  0.65224750  0.70034801     0.07200
C3013       C  0.73947951  0.65777048  0.82300073    -0.06500
Cl3014     Cl  0.77908811  0.72256423  0.76807880    -0.49500
C3015       C  0.70059241  0.80108468  0.81553393     0.43000
H3016       H  0.89212016  0.65505840  0.78348435     0.07200
N3017       N  0.69571851  0.65696490  0.79799887    -0.46200
C3018       C  0.91521351  0.83809870  0.67606357     0.03500
C3019       C  0.88731108  0.81963793  0.68596216    -0.12600
C3020       C  0.87870614  0.82618010  0.70758498     0.01000
C3021       C  0.89747787  0.85195571  0.71903153    -0.11200
C3022       C  0.92439223  0.87158316  0.70907877     0.03500
C3023       C  0.93292646  0.86483442  0.68744676    -0.10600
H3024       H  0.87469544  0.79805338  0.67750307     0.09100
H3025       H  0.89191525  0.85590603  0.73599826     0.06600
H3026       H  0.95534662  0.87805361  0.68008821     0.06500
C3027       C  0.68285256  0.87827854  0.68454796     0.03500
C3028       C  0.65394225  0.89444101  0.69467308    -0.12600
C3029       C  0.64103658  0.88132461  0.71426400     0.01000
C3030       C  0.65750848  0.85217309  0.72377737    -0.11200
C3031       C  0.68619312  0.83551910  0.71381052     0.03500
C3032       C  0.69882626  0.84866432  0.69409288    -0.10600
H3033       H  0.64129416  0.91691678  0.68708509     0.09100
H3034       H  0.64776190  0.84223902  0.73896433     0.06600
H3035       H  0.72064874  0.83572766  0.68599546     0.06500
C3036       C  0.94709400  0.89457949  0.72237785     0.42800
N3037       N  0.98857899  0.93099039  0.73041049     0.01700
C3038       C  0.59265267  0.92758556  0.82291759    -0.06100
H3039       H  0.95804234  0.94923515  0.83719962     0.07200
C3040       C  0.96595700  0.56219578  0.79435706    -0.06500
Co3041     Co  0.52669615  0.90908275  0.77050958     0.74200
N3042       N  0.98988422  0.93769705  0.80926226    -0.25700
Co3043     Co  0.52945983  0.97576456  0.80849103     0.74100
C3044       C  0.95067813  0.55270746  0.81507989     0.42900
N3045       N  0.98961607  0.53505688  0.74307919     0.01400
N3046       N  0.99186580  0.51608816  0.80746409     0.01500
N3047       N  0.59017960  0.88557973  0.79722644    -0.46500
H3048       H  0.95692043  0.86196092  0.75308675     0.07200
N3049       N  0.98862874  0.91251627  0.79465107     0.01700
N3050       N  0.56902415  0.51380259  0.80635878     0.01500
C3051       C  0.61368505  0.54709870  0.81283331     0.43100
N3052       N  0.98957083  0.50940091  0.72876269    -0.25100
C3053       C  0.59176483  0.88511658  0.74401652    -0.06000
N3054       N  0.96517356  0.92303852  0.71518963    -0.46200
N3055       N  0.59535636  0.51893271  0.82014423    -0.46500
C3056       C  0.60987499  0.89725212  0.72460451     0.42900
N3057       N  0.56602950  0.91030081  0.79397888     0.01700
N3058       N  0.56640085  0.50921470  0.72818889    -0.25100
N3059       N  0.98786656  0.90856318  0.74668181    -0.25600
N3060       N  0.56727657  0.53413785  0.74294371     0.01400
H3061       H  0.59671618  0.50076315  0.69912877     0.07300
H3062       H  0.60191785  0.58156098  0.78295346     0.07300
N3063       N  0.56686552  0.93523815  0.80873200    -0.25700
N3064       N  0.99138969  0.53838261  0.79111251    -0.25300
N3065       N  0.56571371  0.93094060  0.73074206     0.01700
C3066       C  0.94507181  0.90140044  0.81567340     0.44700
C3067       C  0.96308876  0.51453218  0.71481735    -0.06600
N3068       N  0.56863935  0.53714594  0.79055571    -0.25300
H3069       H  0.96063213  0.58480441  0.78421654     0.07300
N3070       N  0.96227642  0.89018560  0.79792191    -0.46500
H3071       H  0.95714396  0.49779437  0.70121516     0.07300
C3072       C  0.60930324  0.54776470  0.72132796     0.43000
C3073       C  0.96219225  0.88488316  0.74320418    -0.06000
Co3074     Co  0.52757698  0.97010323  0.72904251     0.73800
N3075       N  0.96398205  0.55830892  0.73956148    -0.46200
C3076       C  0.60845945  0.89491171  0.81498191     0.43200
N3077       N  0.59218927  0.92567910  0.71715391    -0.46200
Co3078     Co  0.52914079  0.53693795  0.76689879     0.73900
C3079       C  0.59594749  0.55928864  0.79322161    -0.06600
C3080       C  0.96337518  0.93290369  0.82332719    -0.06100
N3081       N  0.56493384  0.90762530  0.74652682    -0.25600
N3082       N  0.96839149  0.52424761  0.82255642    -0.46400
H3083       H  0.59878004  0.94236181  0.83733267     0.07200
C3084       C  0.59180691  0.51582098  0.71359337    -0.06500
Cl3085     Cl  0.52811452  0.97298917  0.76874061    -0.49500
C3086       C  0.94610529  0.54695327  0.72196626     0.43000
H3087       H  0.59751893  0.86311882  0.75454184     0.07200
N3088       N  0.59233615  0.55778906  0.73938177    -0.46200
C3089       C  0.71250485  0.48491695  0.94566802    -0.22100
C3090       C  0.71847497  0.52074823  0.94157796     0.09900
C3091       C  0.73385711  0.54202914  0.95765459     0.10300
C3092       C  0.74495896  0.52645487  0.97705146    -0.17000
C3093       C  0.74083465  0.99011109  0.98073869    -0.27400
C3094       C  0.72279302  0.96942101  0.96524160     0.18600
C3095       C  0.70938698  0.53502343  0.92005086     0.12600
C3096       C  0.73876246  0.58102682  0.95424563    -0.11800
H3097       H  0.75792340  0.54248662  0.98916320     0.12900
C3098       C  0.71308952  0.93138731  0.96899385    -0.22600
H3099       H  0.69976280  0.96887309  0.93344587     0.08500
C3100       C  0.73440131  0.53505733  0.90317188     0.04800
C3101       C  0.72415268  0.54676507  0.88262238    -0.19800
C3102       C  0.68963642  0.55902117  0.87867500    -0.12100
C3103       C  0.66503150  0.56040089  0.89591088     0.13600
C3104       C  0.67510791  0.54778164  0.91630276    -0.22600
C3105       C  0.77186600  0.02276462  0.90691510    -0.05600
H3106       H  0.74310506  0.54617955  0.86950234     0.15100
C3107       C  0.62843013  0.57592652  0.89363133    -0.15800
H3108       H  0.65619448  0.54821774  0.92945395     0.09400
H3109       H  0.72607325  0.91465212  0.95666120     0.07300
H3110       H  0.68392423  0.92821753  0.96753073     0.08500
H3111       H  0.72080433  0.92178855  0.98521113     0.07500
H3112       H  0.71260088  0.59359252  0.95140221     0.02400
H3113       H  0.75603131  0.58587199  0.94008691     0.02900
H3114       H  0.75116367  0.59378205  0.96847561     0.06400
H3115       H  0.78776916  0.02340533  0.89186887     0.05400
H3116       H  0.77175834  0.99544688  0.91315885    -0.00400
H3117       H  0.78503475  0.03994751  0.91894368     0.01100
H3118       H  0.60826132  0.55527090  0.89685603     0.04700
H3119       H  0.62329994  0.58732946  0.87748750     0.06700
H3120       H  0.62507457  0.59748376  0.90552548     0.07500
C3121       C  0.82942700  0.94717209  0.94553276    -0.22100
C3122       C  0.82449740  0.91180190  0.93996313     0.09900
C3123       C  0.80857146  0.88841698  0.95473799     0.10300
C3124       C  0.79610523  0.90150241  0.97443552    -0.17000
C3125       C  0.79975425  0.93727917  0.97974424    -0.27400
C3126       C  0.81805703  0.96007908  0.96547699     0.18600
C3127       C  0.83681598  0.89993626  0.91862730     0.12600
C3128       C  0.80504918  0.84974574  0.94977163    -0.11800
H3129       H  0.78291846  0.88388557  0.98563954     0.12900
C3130       C  0.82729090  0.49761494  0.97099993    -0.22600
H3131       H  0.84268653  0.96473856  0.93431425     0.08500
C3132       C  0.81395031  0.89981540  0.90063777     0.04800
C3133       C  0.82747733  0.89060615  0.88040726    -0.19800
C3134       C  0.86313461  0.88093892  0.87787399    -0.12100
C3135       C  0.88567742  0.87974014  0.89613965     0.13600
C3136       C  0.87230192  0.88993571  0.91623946    -0.22600
C3137       C  0.77540383  0.90954599  0.90277411    -0.05600
H3138       H  0.81020394  0.89112828  0.86642631     0.15100
C3139       C  0.92345991  0.86686866  0.89525379    -0.15800
H3140       H  0.88956968  0.88971619  0.93023224     0.09400
H3141       H  0.81458127  0.51572738  0.95923199     0.07300
H3142       H  0.85646611  0.50116935  0.97008286     0.08500
H3143       H  0.81900734  0.50514784  0.98747481     0.07500
H3144       H  0.83173398  0.83821385  0.94716716     0.02400
H3145       H  0.78887642  0.84592779  0.93502726     0.02900
H3146       H  0.79212660  0.83515434  0.96316790     0.06400
H3147       H  0.76150371  0.90897383  0.88698791     0.05400
H3148       H  0.77299875  0.93639362  0.90948052    -0.00400
H3149       H  0.76182166  0.89083268  0.91375551     0.01100
H3150       H  0.94168938  0.88857807  0.89982969     0.04700
H3151       H  0.93126829  0.85696937  0.87918102     0.06700
H3152       H  0.92692620  0.84475768  0.90682276     0.07500
C3153       C  0.63529289  0.63842488  0.61920955    -0.22100
C3154       C  0.60032395  0.65099356  0.61939536     0.09900
C3155       C  0.57992343  0.64811713  0.63832731     0.10300
C3156       C  0.59502778  0.63273260  0.65670461    -0.17000
C3157       C  0.63010563  0.62028209  0.65666231    -0.27400
C3158       C  0.65052504  0.62305435  0.63763025     0.18600
C3159       C  0.58565469  0.66735688  0.59962812     0.12600
C3160       C  0.54253788  0.66198061  0.63926627    -0.11800
H3161       H  0.57957257  0.63101194  0.67140223     0.12900
C3162       C  0.68798134  0.60955621  0.63604454    -0.22600
H3163       H  0.65078910  0.64061273  0.60455144     0.08500
C3164       C  0.59399894  0.70233425  0.59387080     0.04800
C3165       C  0.58020504  0.71642972  0.57470858    -0.19800
C3166       C  0.55772351  0.69658509  0.56136478    -0.12100
C3167       C  0.54860549  0.66176940  0.56750282     0.13600
C3168       C  0.56294932  0.64754309  0.58650031    -0.22600
C3169       C  0.61727592  0.72479540  0.60801444    -0.05600
H3170       H  0.58746179  0.74292639  0.56991253     0.15100
C3171       C  0.52354337  0.63903109  0.55469152    -0.15800
H3172       H  0.55629139  0.62080031  0.59116700     0.09400
H3173       H  0.70614181  0.63178556  0.63233510     0.07300
H3174       H  0.68968763  0.58987226  0.62287445     0.08500
H3175       H  0.69725618  0.59658832  0.65103667     0.07500
H3176       H  0.52572356  0.64796917  0.62735821     0.02400
H3177       H  0.54241985  0.69061262  0.63554818     0.02900
H3178       H  0.53059490  0.65817831  0.65546412     0.06400
H3179       H  0.62069632  0.75173175  0.60129325     0.05400
H3180       H  0.64388865  0.71260904  0.60956957    -0.00400
H3181       H  0.60517015  0.72719581  0.62424847     0.01100
H3182       H  0.53768129  0.61511794  0.54907329     0.04700
H3183       H  0.51224863  0.65263288  0.54046086     0.06700
H3184       H  0.00100538  0.63086271  0.56509893     0.07500
C3185       C  0.96094342  0.75772474  0.58633915    -0.22100
C3186       C  0.97658885  0.78638462  0.59688292     0.09900
C3187       C  0.00845770  0.80082941  0.58886111     0.10300
C3188       C  0.02376007  0.78650669  0.57021108    -0.17000
C3189       C  0.50827509  0.75760201  0.55975468    -0.27400
C3190       C  0.97630280  0.74318917  0.56781314     0.18600
C3191       C  0.95996097  0.79986471  0.61685143     0.12600
C3192       C  0.02632770  0.83116365  0.60008946    -0.11800
H3193       H  0.54808143  0.79762433  0.56384684     0.12900
C3194       C  0.95749274  0.71280133  0.55715245    -0.22600
H3195       H  0.93656289  0.74660866  0.59263453     0.08500
C3196       C  0.93318269  0.82584808  0.61641864     0.04800
C3197       C  0.91890375  0.83810944  0.63596319    -0.19800
C3198       C  0.93060095  0.82453495  0.65579045    -0.12100
C3199       C  0.95692822  0.79793738  0.65609462     0.13600
C3200       C  0.97131900  0.78608089  0.63661546    -0.22600
C3201       C  0.91976052  0.84046665  0.59535536    -0.05600
H3202       H  0.89854811  0.85824596  0.63579933     0.15100
C3203       C  0.97048307  0.78137465  0.67663364    -0.15800
H3204       H  0.49180073  0.76596498  0.63684594     0.09400
H3205       H  0.93017522  0.72091776  0.55270301     0.07300
H3206       H  0.45607925  0.69021575  0.56856499     0.08500
H3207       H  0.47079869  0.70362743  0.54227590     0.07500
H3208       H  0.03341711  0.82338822  0.61680869     0.02400
H3209       H  0.00815408  0.85413017  0.60060032     0.02900
H3210       H  0.05099271  0.83934364  0.59169222     0.06400
H3211       H  0.89884340  0.86062652  0.59784694     0.05400
H3212       H  0.90835356  0.81887149  0.58549427    -0.00400
H3213       H  0.94190716  0.85291340  0.58635921     0.01100
H3214       H  0.46557000  0.75266127  0.67630819     0.04700
H3215       H  0.95791522  0.79210966  0.69134063     0.06700
H3216       H  0.49965409  0.78597992  0.67795463     0.07500
C3217       C  0.58467501  0.78265821  0.89913658    -0.22100
C3218       C  0.59662326  0.79661284  0.91868433     0.09900
C3219       C  0.62276390  0.82323126  0.91875507     0.10300
C3220       C  0.63662641  0.83523094  0.89906807    -0.17000
C3221       C  0.62492486  0.82097070  0.87949918    -0.27400
C3222       C  0.59841403  0.79454261  0.87948460     0.18600
C3223       C  0.58217641  0.78186828  0.93887203     0.12600
C3224       C  0.63581830  0.83894787  0.93956743    -0.11800
H3225       H  0.65666673  0.85571128  0.89890695     0.12900
C3226       C  0.58395138  0.77832504  0.85911154    -0.22600
H3227       H  0.56458839  0.76218694  0.89924261     0.08500
C3228       C  0.54935043  0.79308636  0.94725930     0.04800
C3229       C  0.53644843  0.77746044  0.96619000    -0.19800
C3230       C  0.55571278  0.75095971  0.97674189    -0.12100
C3231       C  0.58848842  0.73961336  0.96825111     0.13600
C3232       C  0.60131679  0.75527041  0.94936024    -0.22600
C3233       C  0.52830238  0.82179347  0.93640101    -0.05600
H3234       H  0.51151963  0.78621705  0.97296587     0.15100
C3235       C  0.61046036  0.71104807  0.97861580    -0.15800
H3236       H  0.62638643  0.74661426  0.94269959     0.09400
H3237       H  0.55493243  0.78298825  0.85819749     0.07300
H3238       H  0.58884164  0.74948217  0.85935020     0.08500
H3239       H  0.59606455  0.78919987  0.84426110     0.07500
H3240       H  0.64799920  0.81811577  0.94973949     0.02400
H3241       H  0.61328695  0.85092505  0.94840098     0.02900
H3242       H  0.65602488  0.85974534  0.93672798     0.06400
H3243       H  0.50341773  0.82764157  0.94524470     0.05400
H3244       H  0.52114663  0.81362810  0.91978997    -0.00400
H3245       H  0.54433308  0.84630709  0.93565855     0.01100
H3246       H  0.61463297  0.68938125  0.96690212     0.04700
H3247       H  0.59788011  0.69952792  0.99314177     0.06700
H3248       H  0.63662411  0.72197008  0.98337561     0.07500
C3249       C  0.96800546  0.66810889  0.89968208    -0.22100
C3250       C  0.95789541  0.65262996  0.91922736     0.09900
C3251       C  0.93442440  0.62363921  0.91920243     0.10300
C3252       C  0.92175518  0.61052357  0.89946963    -0.17000
C3253       C  0.93189339  0.62603083  0.87989122    -0.27400
C3254       C  0.95541934  0.65514127  0.87997835     0.18600
C3255       C  0.97261891  0.66711392  0.93948976     0.12600
C3256       C  0.92274094  0.60673871  0.93999288    -0.11800
H3257       H  0.90374773  0.58825889  0.89929117     0.12900
C3258       C  0.96813781  0.67294360  0.85963853    -0.22600
H3259       H  0.98610288  0.69033056  0.89980997     0.08500
C3260       C  0.00517439  0.65503793  0.94793057     0.04800
C3261       C  0.51827951  0.66978620  0.96706410    -0.19800
C3262       C  0.99978716  0.69661404  0.97772338    -0.12100
C3263       C  0.96744750  0.70910352  0.96906811     0.13600
C3264       C  0.95419665  0.69406104  0.95005337    -0.22600
C3265       C  0.52609975  0.62681243  0.93662917    -0.05600
H3266       H  0.54317424  0.66053006  0.97371803     0.15100
C3267       C  0.94656205  0.73847425  0.97928661    -0.15800
H3268       H  0.92942691  0.70354712  0.94333436     0.09400
H3269       H  0.99751978  0.67172281  0.85893324     0.07300
H3270       H  0.95983882  0.70100228  0.85973304     0.08500
H3271       H  0.95771900  0.66066989  0.84474183     0.07500
H3272       H  0.90884420  0.62645928  0.95010418     0.02400
H3273       H  0.94614531  0.59661590  0.94891168     0.02900
H3274       H  0.90435793  0.58436202  0.93712259     0.06400
H3275       H  0.55095998  0.62040875  0.94540504     0.05400
H3276       H  0.53328859  0.63588877  0.92017970    -0.00400
H3277       H  0.51004178  0.60238757  0.93540252     0.01100
H3278       H  0.94389129  0.76058069  0.96764005     0.04700
H3279       H  0.95915809  0.74895503  0.99408932     0.06700
H3280       H  0.91972130  0.72877113  0.98360086     0.07500
C3281       C  0.84196490  0.48640244  0.59164271    -0.22100
C3282       C  0.83332348  0.52126187  0.59677047     0.09900
C3283       C  0.81495952  0.54230171  0.58169554     0.10300
C3284       C  0.80420948  0.52739850  0.56208403    -0.17000
C3285       C  0.81182768  0.99211793  0.55720443    -0.27400
C3286       C  0.83182735  0.97163601  0.57189085     0.18600
C3287       C  0.84394209  0.53517467  0.61803245     0.12600
C3288       C  0.80672285  0.58035290  0.58635389    -0.11800
H3289       H  0.78919432  0.04305528  0.55064992     0.12900
C3290       C  0.84325914  0.93446426  0.56714261    -0.22600
H3291       H  0.85672938  0.47060933  0.60315100     0.08500
C3292       C  0.82108302  0.53311131  0.63596241     0.04800
C3293       C  0.83261318  0.54603901  0.65593443    -0.19800
C3294       C  0.86651341  0.56077810  0.65832241    -0.12100
C3295       C  0.88912292  0.56344682  0.64018832     0.13600
C3296       C  0.87759865  0.55026239  0.62029503    -0.22600
C3297       C  0.78477656  0.01697174  0.63400468    -0.05600
H3298       H  0.81536198  0.54413156  0.66985549     0.15100
C3299       C  0.92508743  0.58074287  0.64106357    -0.15800
H3300       H  0.89488643  0.55200509  0.60637342     0.09400
H3301       H  0.83171151  0.91631582  0.57931316     0.07300
H3302       H  0.87264045  0.43277719  0.56800298     0.08500
H3303       H  0.83513161  0.92554989  0.55088233     0.07500
H3304       H  0.83177014  0.59508293  0.58904115     0.02400
H3305       H  0.78996282  0.58237025  0.60097813     0.02900
H3306       H  0.79233405  0.59304557  0.57277741     0.06400
H3307       H  0.77037806  0.01719460  0.64960821     0.05400
H3308       H  0.78713944  0.98921188  0.62860880    -0.00400
H3309       H  0.76878797  0.03192166  0.62207635     0.01100
H3310       H  0.94583544  0.56111595  0.63703218     0.04700
H3311       H  0.93136378  0.59218116  0.65702127     0.06700
H3312       H  0.92614316  0.60252984  0.62910003     0.07500
C3313       C  0.74079232  0.89844835  0.58617949    -0.22100
C3314       C  0.72500560  0.92350613  0.59957447     0.09900
C3315       C  0.72138918  0.95861856  0.59243557     0.10300
C3316       C  0.73456723  0.96807458  0.57208968    -0.17000
C3317       C  0.75117681  0.94316388  0.55879732    -0.27400
C3318       C  0.75391280  0.90771885  0.56583844     0.18600
C3319       C  0.71363364  0.91252860  0.62133968     0.12600
C3320       C  0.70367793  0.98592953  0.60631381    -0.11800
H3321       H  0.73215124  0.99509085  0.56654571     0.12900
C3322       C  0.77129875  0.87916266  0.55270815    -0.22600
H3323       H  0.74338884  0.87146709  0.59181812     0.08500
C3324       C  0.67928757  0.89936353  0.62517258     0.04800
C3325       C  0.66998356  0.88886930  0.64607895    -0.19800
C3326       C  0.69439679  0.89085744  0.66313306    -0.12100
C3327       C  0.72883347  0.90425999  0.65927023     0.13600
C3328       C  0.73805370  0.91472790  0.63832347    -0.22600
C3329       C  0.65270863  0.89592090  0.60716295    -0.05600
H3330       H  0.64366936  0.87849574  0.64910742     0.15100
C3331       C  0.75615018  0.90873406  0.67681049    -0.15800
H3332       H  0.76443339  0.92488760  0.63521325     0.09400
H3333       H  0.75155782  0.85830809  0.54904496     0.07300
H3334       H  0.79334409  0.86728739  0.56210748     0.08500
H3335       H  0.78249217  0.88871800  0.53728803     0.07500
H3336       H  0.71760653  0.98797928  0.62200481     0.02400
H3337       H  0.67572381  0.97831069  0.60932411     0.02900
H3338       H  0.70382895  0.01232111  0.59853728     0.06400
H3339       H  0.62709726  0.88502511  0.61296893     0.05400
H3340       H  0.66322377  0.87798171  0.59460162    -0.00400
H3341       H  0.64748517  0.92211419  0.59985731     0.01100
H3342       H  0.77949351  0.89191403  0.67328947     0.04700
H3343       H  0.74608521  0.90179292  0.69303263     0.06700
H3344       H  0.76481936  0.93668468  0.67736675     0.07500
C3345       C  0.72287993  0.53073517  0.13689194    -0.22100
C3346       C  0.70455189  0.53762463  0.11774918     0.09900
C3347       C  0.67391941  0.55896083  0.11807664     0.10300
C3348       C  0.66242059  0.57327469  0.13773748    -0.17000
C3349       C  0.68097382  0.56652441  0.15690720    -0.27400
C3350       C  0.71137089  0.54466144  0.15652213     0.18600
C3351       C  0.71807848  0.52177989  0.09765219     0.12600
C3352       C  0.65354972  0.56657565  0.09771500    -0.11800
H3353       H  0.63893300  0.58967723  0.13819404     0.12900
C3354       C  0.73197064  0.53480964  0.17650097    -0.22600
H3355       H  0.74618153  0.01403628  0.13651272     0.08500
C3356       C  0.74536403  0.53803124  0.08570881     0.04800
C3357       C  0.75812904  0.52148522  0.06710193    -0.19800
C3358       C  0.74451603  0.48890125  0.06041760    -0.12100
C3359       C  0.71733382  0.47250697  0.07247791     0.13600
C3360       C  0.70453330  0.48915563  0.09105105    -0.22600
C3361       C  0.76088835  0.57279145  0.09261131    -0.05600
H3362       H  0.77881142  0.53398189  0.05767121     0.15100
C3363       C  0.70089319  0.93788857  0.06605981    -0.15800
H3364       H  0.68378561  0.47667040  0.10043602     0.09400
H3365       H  0.75967066  0.54437294  0.17495708     0.07300
H3366       H  0.73227103  0.00566057  0.17825986     0.08500
H3367       H  0.72070089  0.54585869  0.19150027     0.07500
H3368       H  0.64381143  0.54154127  0.09062941     0.02400
H3369       H  0.67103583  0.58005414  0.08590857     0.02900
H3370       H  0.63031318  0.58379571  0.10079184     0.06400
H3371       H  0.78187265  0.58192958  0.08136537     0.05400
H3372       H  0.77283446  0.57014215  0.10889451    -0.00400
H3373       H  0.73976748  0.59312176  0.09307083     0.01100
H3374       H  0.70545035  0.91815595  0.07901050     0.04700
H3375       H  0.71184977  0.92730151  0.05085318     0.06700
H3376       H  0.67196649  0.44133904  0.06380289     0.07500
C3377       C  0.62826759  0.66370502  0.41168084    -0.22100
C3378       C  0.59588060  0.65165222  0.42014757     0.09900
C3379       C  0.57491332  0.62893988  0.40723779     0.10300
C3380       C  0.58500999  0.62235934  0.38590888    -0.17000
C3381       C  0.61876838  0.63178266  0.37802570    -0.27400
C3382       C  0.64157265  0.65097337  0.39204672     0.18600
C3383       C  0.58392372  0.66449545  0.44181270     0.12600
C3384       C  0.54281014  0.60935010  0.41550003    -0.11800
H3385       H  0.56653314  0.60814256  0.37580353     0.12900
C3386       C  0.68077335  0.65585732  0.38825475    -0.22600
H3387       H  0.64462740  0.68133193  0.42114927     0.08500
C3388       C  0.60684665  0.66692969  0.45996169     0.04800
C3389       C  0.59485725  0.68380312  0.47871357    -0.19800
C3390       C  0.55924848  0.69387135  0.48108989    -0.12100
C3391       C  0.53526167  0.68578794  0.46428977     0.13600
C3392       C  0.54851239  0.67528257  0.44428307    -0.22600
C3393       C  0.64331280  0.65072789  0.46075064    -0.05600
H3394       H  0.61328796  0.68808313  0.49187563     0.15100
C3395       C  0.49568254  0.68483756  0.46729470    -0.15800
H3396       H  0.53031379  0.67362554  0.43080832     0.09400
H3397       H  0.69555140  0.64946454  0.40326534     0.07300
H3398       H  0.68639606  0.68366047  0.38382740     0.08500
H3399       H  0.69145558  0.63774288  0.37591792     0.07500
H3400       H  0.51850252  0.61964927  0.40759268     0.02400
H3401       H  0.53989098  0.61073520  0.43323183     0.02900
H3402       H  0.54543133  0.58092696  0.41160474     0.06400
H3403       H  0.64556886  0.63379757  0.47531563     0.05400
H3404       H  0.66366051  0.67181640  0.46168235    -0.00400
H3405       H  0.64894449  0.63347233  0.44681603     0.01100
H3406       H  0.48268500  0.70268385  0.45553504     0.04700
H3407       H  0.48749688  0.69180430  0.48389239     0.06700
H3408       H  0.48601957  0.65767399  0.46419479     0.07500
C3409       C  0.83375293  0.53296329  0.40162496    -0.22100
C3410       C  0.85681284  0.53045210  0.41922874     0.09900
C3411       C  0.89196527  0.54278486  0.41728315     0.10300
C3412       C  0.90288498  0.55856588  0.39787163    -0.17000
C3413       C  0.87967040  0.56150553  0.38022951    -0.27400
C3414       C  0.84489256  0.54746867  0.38196837     0.18600
C3415       C  0.84297248  0.51578553  0.43970573     0.12600
C3416       C  0.91798544  0.53876360  0.43555450    -0.11800
H3417       H  0.92976299  0.56839915  0.39635774     0.12900
C3418       C  0.81923266  0.54563945  0.36332209    -0.22600
H3419       H  0.80693984  0.52290138  0.40313979     0.08500
C3420       C  0.82889247  0.53810255  0.45563635     0.04800
C3421       C  0.81483951  0.52332783  0.47447091    -0.19800
C3422       C  0.81351977  0.98662273  0.47761158    -0.12100
C3423       C  0.82845878  0.96424610  0.46180815     0.13600
C3424       C  0.84258241  0.97916881  0.44288906    -0.22600
C3425       C  0.82774276  0.57747775  0.45248962    -0.05600
H3426       H  0.80363506  0.54053311  0.48660478     0.15100
C3427       C  0.83099854  0.92490412  0.46459845    -0.15800
H3428       H  0.85362622  0.96215433  0.43059952     0.09400
H3429       H  0.79569903  0.56219103  0.36683837     0.07300
H3430       H  0.81042293  0.51795338  0.36112034     0.08500
H3431       H  0.83073288  0.55417694  0.34777851     0.07500
H3432       H  0.92114525  0.51041038  0.43955445     0.02400
H3433       H  0.90832459  0.55291161  0.45001638     0.02900
H3434       H  0.94446063  0.54952679  0.43129701     0.06400
H3435       H  0.81547136  0.59100200  0.46646739     0.05400
H3436       H  0.81188829  0.58389695  0.43791624    -0.00400
H3437       H  0.85496246  0.58801343  0.45045911     0.01100
H3438       H  0.81513481  0.91165993  0.45188862     0.04700
H3439       H  0.82153608  0.91580270  0.48056081     0.06700
H3440       H  0.85909645  0.91660269  0.46306854     0.07500
C3441       C  0.60882007  0.75834672  0.08188226    -0.22100
C3442       C  0.58650655  0.77647474  0.09605732     0.09900
C3443       C  0.55087272  0.78267439  0.09032591     0.10300
C3444       C  0.53826532  0.77038108  0.07047157    -0.17000
C3445       C  0.56022394  0.75126381  0.05649639    -0.27400
C3446       C  0.59605329  0.74522801  0.06224427     0.18600
C3447       C  0.60049085  0.78726924  0.11730080     0.12600
C3448       C  0.52603906  0.80165404  0.10533036    -0.11800
H3449       H  0.51094121  0.77516824  0.06594586     0.12900
C3450       C  0.62121665  0.72405186  0.04857187    -0.22600
H3451       H  0.63612432  0.75350247  0.08648595     0.08500
C3452       C  0.60209393  0.76325495  0.13464628     0.04800
C3453       C  0.61384728  0.77499355  0.15482768    -0.19800
C3454       C  0.62461830  0.81002972  0.15796940    -0.12100
C3455       C  0.62430874  0.83373985  0.14026595     0.13600
C3456       C  0.61172425  0.82209736  0.12022048    -0.22600
C3457       C  0.59111548  0.72536633  0.13185671    -0.05600
H3458       H  0.61427535  0.75681235  0.16833874     0.15100
C3459       C  0.63791935  0.87101980  0.14166650    -0.15800
H3460       H  0.61091039  0.84024932  0.10669106     0.09400
H3461       H  0.63182912  0.70171743  0.05819624     0.07300
H3462       H  0.64362744  0.74103474  0.04338403     0.08500
H3463       H  0.60863384  0.71275626  0.03402693     0.07500
H3464       H  0.53594036  0.82875059  0.10830514     0.02400
H3465       H  0.52437461  0.78729572  0.12090192     0.02900
H3466       H  0.49885872  0.80359870  0.09852534     0.06400
H3467       H  0.59288053  0.71036955  0.14721507     0.05400
H3468       H  0.60858451  0.71240876  0.11988448    -0.00400
H3469       H  0.56340552  0.72406073  0.12601806     0.01100
H3470       H  0.65900191  0.87505608  0.12942349     0.04700
H3471       H  0.64959719  0.87742043  0.15755878     0.06700
H3472       H  0.61593830  0.88970651  0.13835183     0.07500
C3473       C  0.95924081  0.69441611  0.08591278    -0.22100
C3474       C  0.98173128  0.67338300  0.09849084     0.09900
C3475       C  0.51565265  0.66438120  0.09070610     0.10300
C3476       C  0.52623308  0.67653148  0.07034965    -0.17000
C3477       C  0.00382082  0.69778227  0.05780382    -0.27400
C3478       C  0.97003760  0.70720274  0.06576995     0.18600
C3479       C  0.96908672  0.66090430  0.11973117     0.12600
C3480       C  0.54093441  0.64262559  0.10402840    -0.11800
H3481       H  0.55230563  0.66989555  0.06427132     0.12900
C3482       C  0.94525860  0.73164123  0.05389447    -0.22600
H3483       H  0.93324264  0.70130664  0.09200825     0.08500
C3484       C  0.96633083  0.68381913  0.13752253     0.04800
C3485       C  0.95515946  0.67032571  0.15743885    -0.19800
C3486       C  0.94580491  0.63470674  0.15982928    -0.12100
C3487       C  0.94704055  0.61216445  0.14167859     0.13600
C3488       C  0.95926628  0.62549663  0.12196277    -0.22600
C3489       C  0.97538428  0.72236055  0.13556963    -0.05600
H3490       H  0.95377914  0.68764643  0.17128323     0.15100
C3491       C  0.93444745  0.57445557  0.14216192    -0.15800
H3492       H  0.96054695  0.60827088  0.10806261     0.09400
H3493       H  0.93939238  0.75482331  0.06417380     0.07300
H3494       H  0.92009204  0.71766133  0.05030377     0.08500
H3495       H  0.95631520  0.74164282  0.03852546     0.07500
H3496       H  0.52946418  0.61616421  0.10709448     0.02400
H3497       H  0.54599597  0.65591657  0.11965297     0.02900
H3498       H  0.56676798  0.63899317  0.09575955     0.06400
H3499       H  0.97297933  0.73621052  0.15124793     0.05400
H3500       H  0.95720309  0.73536086  0.12395611    -0.00400
H3501       H  0.50296649  0.72533043  0.12981392     0.01100
H3502       H  0.91377261  0.57065155  0.12962027     0.04700
H3503       H  0.92252072  0.56667596  0.15775172     0.06700
H3504       H  0.95701611  0.55660154  0.13869323     0.07500
C3505       C  0.72261786  0.93838070  0.44310814    -0.22100
C3506       C  0.71258915  0.90265058  0.44428143     0.09900
C3507       C  0.72090469  0.88363727  0.46334675     0.10300
C3508       C  0.74089733  0.90004073  0.47955951    -0.17000
C3509       C  0.74853576  0.93636313  0.47900818    -0.27400
C3510       C  0.73708789  0.95607418  0.46090274     0.18600
C3511       C  0.69427962  0.88636498  0.42522041     0.12600
C3512       C  0.70741387  0.84698190  0.46804860    -0.11800
H3513       H  0.74867393  0.88463567  0.49352978     0.12900
C3514       C  0.73638610  0.99571644  0.46035416    -0.22600
H3515       H  0.71676971  0.95340821  0.42866971     0.08500
C3516       C  0.66712163  0.90406035  0.41370130     0.04800
C3517       C  0.65687707  0.89161871  0.39334759    -0.19800
C3518       C  0.66830045  0.85865905  0.38543205    -0.12100
C3519       C  0.68972055  0.83778666  0.39937033     0.13600
C3520       C  0.70542597  0.85335480  0.41754927    -0.22600
C3521       C  0.64759190  0.93561870  0.42245425    -0.05600
H3522       H  0.63974091  0.90838570  0.38388302     0.15100
C3523       C  0.69446886  0.79857359  0.39681687    -0.15800
H3524       H  0.72550103  0.83873440  0.42627558     0.09400
H3525       H  0.70909860  0.00477592  0.45654460     0.07300
H3526       H  0.75453672  0.00555590  0.44761688     0.08500
H3527       H  0.74341733  0.00760307  0.47605995     0.07500
H3528       H  0.72988832  0.82811339  0.46811099     0.02400
H3529       H  0.68691252  0.83803807  0.45651705     0.02900
H3530       H  0.69467136  0.84652720  0.48417780     0.06400
H3531       H  0.61861358  0.93054843  0.42177416     0.05400
H3532       H  0.65364746  0.95923269  0.41252343    -0.00400
H3533       H  0.65395688  0.94111244  0.43955411     0.01100
H3534       H  0.72251295  0.79246338  0.39292957     0.04700
H3535       H  0.67663051  0.78727285  0.38441987     0.06700
H3536       H  0.68750457  0.78521418  0.41219280     0.07500
C3537       C  0.81029648  0.88424411  0.08472404    -0.22100
C3538       C  0.83230228  0.90573830  0.09728330     0.09900
C3539       C  0.83816184  0.94103214  0.09105213     0.10300
C3540       C  0.82185398  0.95407666  0.07230414    -0.17000
C3541       C  0.79971138  0.93264807  0.05971018    -0.27400
C3542       C  0.79387618  0.89721280  0.06600474     0.18600
C3543       C  0.84774529  0.89115905  0.11740215     0.12600
C3544       C  0.86157397  0.96486709  0.10422732    -0.11800
H3545       H  0.82661618  0.98104530  0.06732119     0.12900
C3546       C  0.77016639  0.87246575  0.05362915    -0.22600
H3547       H  0.80563309  0.85723636  0.08969484     0.08500
C3548       C  0.82889082  0.89251264  0.13698274     0.04800
C3549       C  0.84450742  0.87891037  0.15575110    -0.19800
C3550       C  0.87859225  0.86401298  0.15545884    -0.12100
C3551       C  0.89728721  0.86212147  0.13573564     0.13600
C3552       C  0.88159229  0.87584442  0.11692938    -0.22600
C3553       C  0.79243844  0.90864597  0.13807182    -0.05600
H3554       H  0.83027011  0.88045510  0.17089564     0.15100
C3555       C  0.93331724  0.84527997  0.13389105    -0.15800
H3556       H  0.89583677  0.87459002  0.10177717     0.09400
H3557       H  0.74856047  0.86298760  0.06431452     0.07300
H3558       H  0.78583261  0.84946987  0.04808027     0.08500
H3559       H  0.75771487  0.88484231  0.03932804     0.07500
H3560       H  0.88873802  0.95372361  0.10508741     0.02400
H3561       H  0.85079326  0.96734241  0.12079081     0.02900
H3562       H  0.86334198  0.99168582  0.09710682     0.06400
H3563       H  0.78145692  0.90771513  0.15466558     0.05400
H3564       H  0.77408170  0.89409051  0.12729270    -0.00400
H3565       H  0.79357653  0.93664505  0.13290509     0.01100
H3566       H  0.93214720  0.82340265  0.12205683     0.04700
H3567       H  0.94295716  0.83418956  0.14935941     0.06700
H3568       H  0.95282881  0.86512441  0.12819624     0.07500
C3569       C  0.97977770  0.76626249  0.40232777    -0.22100
C3570       C  0.98150982  0.79329473  0.41764205     0.09900
C3571       C  0.97033917  0.82753882  0.41207334     0.10300
C3572       C  0.95598612  0.83362698  0.39153944    -0.17000
C3573       C  0.95329300  0.80642516  0.37626957    -0.27400
C3574       C  0.96619456  0.77247689  0.38156817     0.18600
C3575       C  0.99379232  0.78467099  0.43967884     0.12600
C3576       C  0.97407868  0.85767122  0.42768205    -0.11800
H3577       H  0.94687446  0.85983651  0.38731920     0.12900
C3578       C  0.96706908  0.74316572  0.36523221    -0.22600
H3579       H  0.98901187  0.74015937  0.40671491     0.08500
C3580       C  0.96936983  0.77601669  0.45604072     0.04800
C3581       C  0.98201802  0.76583657  0.47635530    -0.19800
C3582       C  0.51852667  0.76240507  0.48037542    -0.12100
C3583       C  0.54298764  0.77310703  0.46432194     0.13600
C3584       C  0.53024433  0.78380601  0.44406302    -0.22600
C3585       C  0.93004903  0.77552926  0.45169633    -0.05600
H3586       H  0.96327781  0.75790648  0.48869391     0.15100
C3587       C  0.58244325  0.77390539  0.46806438    -0.15800
H3588       H  0.54885945  0.79113529  0.43151492     0.09400
H3589       H  0.93980728  0.73550278  0.36053040     0.07300
H3590       H  0.98032299  0.71927982  0.37175058     0.08500
H3591       H  0.98194813  0.75186640  0.35073306     0.07500
H3592       H  0.50239905  0.86107685  0.43206276     0.02400
H3593       H  0.95861128  0.85232548  0.44252045     0.02900
H3594       H  0.96445482  0.88283859  0.42063399     0.06400
H3595       H  0.91475805  0.76734422  0.46615438     0.05400
H3596       H  0.92411597  0.75662561  0.43854686    -0.00400
H3597       H  0.92083355  0.80211996  0.44683901     0.01100
H3598       H  0.59570107  0.75555012  0.45673887     0.04700
H3599       H  0.58985155  0.76652880  0.48476419     0.06700
H3600       H  0.59255762  0.80096555  0.46510480     0.07500
loop_ 
_geom_bond_atom_site_label_1 
_geom_bond_atom_site_label_2 
_geom_bond_distance 
_geom_bond_site_symmetry_2 
_ccdc_geom_bond_type 
C1            C2   1.401       .  A
C1            C6   1.406       .  A
C1          C873   1.485       .  S
C2            C3   1.402       .  A
C2            H7   1.084       .  S
C3            C4   1.398       .  A
C3           C37   1.473       .  S
C4            C5   1.404       .  A
C4            H8   1.083       .  S
C5            C6   1.407       .  A
C5          C156   1.476       .  S
C6            H9   1.082       .  S
C10          C11   1.407       .  A
C10          C15   1.405       .  A
C10         C850   1.483       .  S
C11          C12   1.405       .  A
C11          H16   1.084       .  S
C12          C13   1.402       .  A
C12          C67   1.472       .  S
C13          C14   1.401       .  A
C13          H17   1.085       .  S
C14          C15   1.403       .  A
C14         C126   1.474       .  S
C15          H18   1.084       .  S
C19          C20   1.414       .  A
C19          C24   1.417       .  A
C19         C818   1.514       .  S
C20          C21   1.401       .  A
C20          H25   1.080       .  S
C21          C22   1.398       .  A
C21         C166   1.474       .  S
C22          C23   1.401       .  A
C22          H26   1.085       .  S
C23          C24   1.406       .  A
C23          C87   1.478       .  S
C24          H27   1.080       .  S
C28          C29   1.399       .  A
C28          C33   1.398       .  A
C28         C786   1.481       .  S
C29          C30   1.405       .  A
C29          H34   1.082       .  S
C30          C31   1.408       .  A
C30          C77   1.477       .  S
C31          C32   1.405       .  A
C31          H35   1.084       .  S
C32          C33   1.404       .  A
C32         C176   1.479       .  S
C33          H36   1.082       .  S
C37          C74   1.465       .  S
C37        N1855   1.346       .  A
N38          N55   1.320       .  A
N38        N1860   1.320       .  A
N38         Co75   2.068   1_655  S
C39        C1877   1.461       .  S
C39          H84   1.081   1_655  S
C39          N64   1.338       .  A
H40          C81   1.081   1_455  S
C41          C45   1.460       .  S
C41          H70   1.081       .  S
C41          N65   1.334       .  A
Co42         N60   2.091       .  S
Co42         N50   2.078       .  S
Co42        N982   2.075       .  S
Co42        N958   2.091       .  S
Co42      Cl1886   2.434       .  S
N43          C81   1.346       .  A
N43        N1850   1.319       .  A
N43         Co44   2.090   1_655  S
Co44         N47   2.079       .  S
Co44        N964   2.077   1_455  S
Co44        N951   2.088       .  S
Co44        Cl86   2.467       .  S
C45          C92   1.476       .  S
C45          N83   1.351       .  A
N46          N53   1.318       .  A
N46          N76   1.324       .  A
N46         Co79   2.087       .  S
N47          N65   1.320       .  A
N47          N83   1.326       .  A
N48          C77   1.351       .  A
N48          N58   1.325       .  A
H49          C74   1.081       .  S
N50          N71   1.322       .  A
N50        N1843   1.319       .  A
N51          N69   1.320       .  A
N51          N56   1.325       .  A
N51        Co944   2.088   1_545  S
C52          C80   1.458       .  S
C52         C121   1.471       .  S
C52          N56   1.350       .  A
N53          C68   1.343       .  A
N53         Co75   2.086       .  S
C54          C57   1.455       .  S
C54          H88   1.082       .  S
C54          N82   1.337       .  A
N55        C1837   1.346       .  A
C57         C101   1.471       .  S
C57        N1878   1.352       .  A
N58        N1864   1.320       .  A
N58        Co942   2.091   1_545  S
N59          C85   1.339       .  A
N59          N61   1.320       .  A
N59        Co975   2.077   1_545  S
N60          C74   1.342       .  A
N60        N1838   1.320       .  A
N61          N89   1.325       .  A
N61        Co979   2.090   1_545  S
H62          C85   1.082       .  S
H63          C80   1.082       .  S
N64        N1858   1.320       .  A
N64        Co944   2.077   1_645  S
N65         Co79   2.082       .  S
N66          N78   1.327       .  A
N66        N1882   1.319       .  A
N66        Co975   2.089   1_645  S
C67        C1881   1.463       .  S
C67          N71   1.347       .  A
C68          C87   1.463       .  S
C68          H72   1.082       .  S
N69          C80   1.340       .  A
N69        Co979   2.080   1_545  S
C73          C85   1.461       .  S
C73         C112   1.478       .  S
C73          N89   1.351       .  A
Co75        N959   2.077       .  S
Co75        N966   2.089   1_455  S
Co75        Cl86   2.465       .  S
N76          C87   1.351       .  A
C77        C1839   1.461       .  S
N78        C1857   1.352       .  A
Co79        N961   2.090       .  S
Co79        N969   2.080       .  S
Co79        Cl86   2.432       .  S
C81        C1867   1.463       .  S
N82        N1866   1.319       .  A
N82        Co942   2.075   1_545  S
Cl86      Co1842   2.434   1_455  S
C90          C91   1.407       .  A
C90          C95   1.407       .  A
C90         C754   1.482       .  S
C91          C92   1.403       .  A
C91          H96   1.084       .  S
C92          C93   1.399       .  A
C93          C94   1.397       .  A
C93          H97   1.079       .  S
C94          C95   1.403       .  A
C94         C146   1.476       .  S
C95          H98   1.084       .  S
C99         C100   1.405       .  A
C99         C104   1.409       .  A
C99         C713   1.484       .  S
C100        C101   1.401       .  A
C100        H105   1.084       .  S
C101        C102   1.400       .  A
C102        C103   1.402       .  A
C102        H106   1.085       .  S
C103        C104   1.404       .  A
C103        C134   1.474       .  S
C104        H107   1.084       .  S
C108        C109   1.411       .  A
C108        C113   1.412       .  A
C108        C681   1.508       .  S
C109        C110   1.406       .  A
C109        H114   1.081       .  S
C110        C111   1.403       .  A
C110        C141   1.481       .  S
C111        C112   1.399       .  A
C111        H115   1.082       .  S
C112        C113   1.401       .  A
C113        H116   1.080       .  S
C117        C118   1.404       .  A
C117        C122   1.402       .  A
C117        C649   1.475       .  S
C118        C119   1.402       .  A
C118        H123   1.084       .  S
C119        C120   1.403       .  A
C119        C162   1.470       .  S
C120        C121   1.401       .  A
C120        H124   1.084       .  S
C121        C122   1.402       .  A
C122        H125   1.084       .  S
C126        C163   1.458       .  S
C126        N144   1.351       .  A
N127        N144   1.326       .  A
N127        N149   1.319       .  A
N127       Co164   2.088       .  S
C128        C166   1.463       .  S
C128        H173   1.082       .  S
C128        N153   1.343       .  A
H129        C170   1.081       .  S
C130        C134   1.454       .  S
C130        H159   1.082       .  S
C130        N154   1.335       .  A
Co131       N149   2.077       .  S
Co131       N139   2.089       .  S
Co131       N171   2.087       .  S
Co131       N147   2.078       .  S
Co131      Cl175   2.429       .  S
N132        C170   1.342       .  A
N132        N139   1.321       .  A
N132       Co133   2.080       .  S
Co133       N136   2.097       .  S
Co133       N153   2.093       .  S
Co133       N140   2.085       .  S
Co133      Cl175   2.473       .  S
C134        N172   1.354       .  A
N135        N142   1.320       .  A
N135        N165   1.328       .  A
N135       Co168   2.100       .  S
N136        N154   1.319       .  A
N136        N172   1.329       .  A
N137        C166   1.347       .  A
N137        N147   1.324       .  A
H138        C163   1.082       .  S
N139        N160   1.322       .  A
N140        N158   1.321       .  A
N140        N145   1.325       .  A
C141        C169   1.463       .  S
C141        N145   1.352       .  A
N142        C157   1.334       .  A
N142       Co164   2.070       .  S
C143        C146   1.462       .  S
C143        H177   1.081       .  S
C143        N171   1.336       .  A
C146        N167   1.350       .  A
N147        N153   1.320       .  A
N148        C174   1.345       .  A
N148        N150   1.319       .  A
N148       Co164   2.090       .  S
N149        C163   1.339       .  A
N150        N178   1.321       .  A
N150       Co168   2.071       .  S
H151        C174   1.081       .  S
H152        C169   1.081       .  S
N154       Co168   2.070       .  S
N155        N167   1.325       .  A
N155        N171   1.320       .  A
N155       Co164   2.075       .  S
C156        C170   1.461       .  S
C156        N160   1.350       .  A
C157        C176   1.458       .  S
C157        H161   1.081       .  S
N158        C169   1.340       .  A
N158       Co168   2.093       .  S
C162        C174   1.464       .  S
C162        N178   1.345       .  A
Co164      Cl175   2.469       .  S
N165        C176   1.354       .  A
Co168      Cl175   2.431       .  S
C179        C180   1.427       .  A
C179        C184   1.409       .  A
C179        C809   1.499       .  S
C180        C181   1.407       .  A
C180        C722   1.490       .  S
C181        C182   1.398       .  A
C181       H1086   1.085       .  S
C182        C183   1.408       .  A
C182        C585   1.481       .  S
C183        C184   1.399       .  A
C183        C617   1.483       .  S
C184        H185   1.085       .  S
H186       C1081   1.085   1_545  S
C187        C188   1.413       .  A
C187       C1992   1.403       .  A
C187       C2577   1.479       .  S
C188        C189   1.399       .  A
C188        C745   1.483       .  S
C189        C190   1.399   1_554  A
C189        H194   1.084       .  S
C190        C191   1.410       .  A
C190        C530   1.473       .  S
C191       C1992   1.401   1_556  A
C191       C2362   1.480   1_455  S
C192       C1987   1.403       .  A
C192       C1991   1.401   1_554  A
C192        H193   1.084       .  S
C195        C196   1.423       .  A
C195        C200   1.404       .  A
C195        C882   1.489       .  S
C196        C197   1.406       .  A
C196        C690   1.494       .  S
C197        C198   1.403       .  A
C197        H202   1.084       .  S
C198        C199   1.411       .  A
C198        C466   1.486       .  S
C199        C200   1.399       .  A
C199        C489   1.481       .  S
C200       H2001   1.084       .  S
H201       C2000   1.084       .  S
C203        C204   1.412       .  A
C203        C208   1.402       .  A
C203        C841   1.485       .  S
C204        C205   1.400       .  A
C204       C1558   1.477       .  S
C205        C206   1.401       .  A
C205       H1110   1.085       .  S
C206        C207   1.418       .  A
C206        C393   1.488   1_554  S
C207        C208   1.404       .  A
C207        C425   1.483   1_554  S
C208        H209   1.085       .  S
H210       C1105   1.085   1_545  S
C211        C212   1.400       .  A
C211        C216   1.403       .  A
C211        C434   1.478       .  S
C212        C213   1.402       .  A
C212        H217   1.084       .  S
C213        C214   1.401       .  A
C213        C265   1.473       .  S
C214        C215   1.403       .  A
C214        H218   1.082       .  S
C215        C216   1.403       .  A
C215        C366   1.473       .  S
C216        H219   1.083       .  S
C220        C221   1.405       .  A
C220        C225   1.405       .  A
C220        C553   1.477       .  S
C221        C222   1.403       .  A
C221        H226   1.084       .  S
C222        C223   1.400       .  A
C222        C344   1.469       .  S
C223        C224   1.398       .  A
C223        H227   1.085       .  S
C224        C225   1.402       .  A
C224        C285   1.469       .  S
C225        H228   1.084       .  S
C229        C230   1.405       .  A
C229        C234   1.403       .  A
C229        C402   1.483       .  S
C230        C231   1.405       .  A
C230        H235   1.084       .  S
C231        C232   1.404       .  A
C231        C351   1.479       .  S
C232        C233   1.403       .  A
C232        H236   1.082       .  S
C233        C234   1.404       .  A
C233        C301   1.477       .  S
C234        H237   1.083       .  S
C238        C239   1.400       .  A
C238        C243   1.403       .  A
C238        C521   1.472       .  S
C239        C240   1.400       .  A
C239        H244   1.084       .  S
C240        C241   1.405       .  A
C240        C376   1.470       .  S
C241        C242   1.405       .  A
C241        H245   1.085       .  S
C242        C243   1.403       .  A
C242        C315   1.473       .  S
C243        H246   1.084       .  S
C247        C248   1.405       .  A
C247        C252   1.404       .  A
C247        C457   1.480       .  S
C248        C249   1.404       .  A
C248        H253   1.084       .  S
C249        C250   1.402       .  A
C249        C280   1.472       .  S
C250        C251   1.401       .  A
C250        H254   1.085       .  S
C251        C252   1.400       .  A
C251        C372   1.468       .  S
C252        H255   1.084       .  S
C256        C257   1.398       .  A
C256        C261   1.397       .  A
C256        C594   1.478       .  S
C257        C258   1.405       .  A
C257        H262   1.082       .  S
C258        C259   1.406       .  A
C258        C386   1.479       .  S
C259        C260   1.407       .  A
C259        H263   1.084       .  S
C260        C261   1.405       .  A
C260        C305   1.477       .  S
C261        H264   1.082       .  S
C265        C302   1.461       .  S
C265        N283   1.348       .  A
N266        N283   1.322       .  A
N266        N288   1.320       .  A
N266       Co303   2.074       .  S
C267        C305   1.459       .  S
C267        H312   1.081       .  S
C267        N292   1.336       .  A
H268        C309   1.082       .  S
C269        C273   1.461       .  S
C269        H298   1.081       .  S
C269        N293   1.335       .  A
Co270       N288   2.086       .  S
Co270       N278   2.083       .  S
Co270       N310   2.078       .  S
Co270       N286   2.093       .  S
Co270      Cl314   2.433       .  S
N271        C309   1.345       .  A
N271        N278   1.319       .  A
N271       Co272   2.089       .  S
Co272       N275   2.075       .  S
Co272       N292   2.072       .  S
Co272       N279   2.091       .  S
Co272      Cl314   2.468       .  S
C273        C331   1.475       .  S
C273        N311   1.350       .  A
N274        N281   1.319       .  A
N274        N304   1.323       .  A
N274       Co307   2.079       .  S
N275        N293   1.320       .  A
N275        N311   1.325       .  A
N276        C305   1.352       .  A
N276        N286   1.326       .  A
H277        C302   1.081       .  S
N278        N299   1.323       .  A
N279        N297   1.319       .  A
N279        N284   1.327       .  A
C280        C308   1.456       .  S
C280        N284   1.352       .  A
N281        C296   1.344       .  A
N281       Co303   2.093       .  S
C282        C285   1.456       .  S
C282        H316   1.081       .  S
C282        N310   1.337       .  A
C285        N306   1.350       .  A
N286        N292   1.320       .  A
N287        C313   1.340       .  A
N287        N289   1.319       .  A
N287       Co303   2.075       .  S
N288        C302   1.339       .  A
N289        N317   1.324       .  A
N289       Co307   2.091       .  S
H290        C313   1.081       .  S
H291        C308   1.082       .  S
N293       Co307   2.083       .  S
N294        N306   1.326       .  A
N294        N310   1.320       .  A
N294       Co303   2.086       .  S
C295        C309   1.463       .  S
C295        C320   1.472       .  S
C295        N299   1.348       .  A
C296        C315   1.464       .  S
C296        H300   1.082       .  S
N297        C308   1.337       .  A
N297       Co307   2.073       .  S
C301        C313   1.460       .  S
C301        N317   1.352       .  A
Co303      Cl314   2.468       .  S
N304        C315   1.347       .  A
Co307      Cl314   2.430       .  S
C318        C319   1.405       .  A
C318        C323   1.406       .  A
C318        C498   1.480       .  S
C319        C320   1.404       .  A
C319        H324   1.084       .  S
C320        C321   1.402       .  A
C321        C322   1.402       .  A
C321        H325   1.085       .  S
C322        C323   1.405       .  A
C322        C336   1.476       .  S
C323        H326   1.084       .  S
C327        C328   1.402       .  A
C327        C332   1.405       .  A
C327        C626   1.477       .  S
C328        C329   1.400       .  A
C328        H333   1.084       .  S
C329        C330   1.399       .  A
C329        C356   1.471       .  S
C330        C331   1.399       .  A
C330        H334   1.079       .  S
C331        C332   1.404       .  A
C332        H335   1.084       .  S
C336        C373   1.458       .  S
C336        N354   1.352       .  A
N337        N354   1.327       .  A
N337        N359   1.319       .  A
N337      Co2174   2.091       .  S
C338        C376   1.463       .  S
C338        H383   1.082       .  S
C338        N363   1.343       .  A
H339        C380   1.081       .  S
C340        C344   1.454       .  S
C340        H369   1.082       .  S
C340        N364   1.335       .  A
Co341       N381   2.075       .  S
Co341       N357   2.078       .  S
Co341      N2159   2.081   1_455  S
Co341      N2149   2.081   1_455  S
Co341      Cl385   2.429       .  S
N342        C380   1.340       .  A
N342        N349   1.320       .  A
N342      Co2143   2.078       .  S
Co343       N363   2.088       .  S
Co343      N2142   2.078   1_455  S
Co343      N3046   2.088   1_455  S
Co343      N1250   2.080       .  S
Co343      Cl385   2.469       .  S
C344        N382   1.352       .  A
N345        N352   1.320       .  A
N345        N375   1.327       .  A
N345      Co2178   2.099       .  S
N346        N364   1.320       .  A
N346        N382   1.327       .  A
N346      Co3043   2.088   1_545  S
N347        C376   1.347       .  A
N347        N357   1.323       .  A
H348        C373   1.082       .  S
N349        N370   1.322       .  A
N349      Co2141   2.081       .  S
N350        N368   1.320       .  A
N350        N355   1.325       .  A
N350      Co1243   2.080   1_545  S
C351        C379   1.462       .  S
C351        N355   1.351       .  A
N352        C367   1.335       .  A
N352      Co3074   2.070   1_545  S
C353        C356   1.459       .  S
C353        H387   1.081       .  S
C353        N381   1.335       .  A
C356        N377   1.349       .  A
N357        N363   1.319       .  A
N358        C384   1.343       .  A
N358        N360   1.319       .  A
N358      Co1274   2.085   1_545  S
N359        C373   1.339       .  A
N359      Co2141   2.081       .  S
N360        N388   1.322       .  A
N360       Co378   2.073       .  S
H361        C384   1.081       .  S
H362        C379   1.081       .  S
N364      Co2178   2.072       .  S
N365        N377   1.324       .  A
N365        N381   1.319       .  A
N365       Co374   2.072       .  S
C366        C380   1.461       .  S
C366        N370   1.349       .  A
C367        C386   1.458       .  S
C367        H371   1.081   1_545  S
N368        C379   1.340       .  A
N368       Co378   2.090       .  S
C372        C384   1.462       .  S
C372        N388   1.347       .  A
Co374      N2137   2.091   1_455  S
Co374      N3052   2.070   1_455  S
Co374      N1258   2.085       .  S
Co374      Cl385   2.466       .  S
N375        C386   1.354       .  A
Co378      N2145   2.099   1_455  S
Co378      N2164   2.072   1_455  S
Co378     Cl1285   2.430   1_545  S
Cl385     Co1278   2.430       .  S
C389        C390   1.401   1_565  A
C389       C1294   1.403       .  A
C389       H1299   1.085       .  S
C390        C391   1.409       .  A
C390        C395   1.480       .  S
C391        C392   1.403       .  A
C391        C396   1.506       .  S
C392       C1293   1.406   1_545  A
C392        H397   1.084       .  S
C393        C394   1.416       .  A
C393       C1292   1.406       .  A
C394       C1289   1.403       .  A
C394        C398   1.507       .  S
C395        C400   1.411       .  A
C395        C404   1.400       .  A
C396        H412   1.110       .  S
C396        H413   1.109       .  S
C396        H414   1.111       .  S
C398        H409   1.110       .  S
C398        H410   1.110       .  S
C398        H411   1.108       .  S
H399       C1289   1.085       .  S
C400        C401   1.403       .  A
C400       C1305   1.507       .  S
C401        C402   1.404       .  A
C401        H406   1.084       .  S
C402        C403   1.418       .  A
C403        C404   1.404       .  A
C403        C407   1.508       .  S
C404        H408   1.085       .  S
C405       C1300   1.507       .  S
C405        H415   1.111       .  S
C405        H416   1.106       .  S
C405        H417   1.109       .  S
C407        H418   1.110       .  S
C407        H419   1.107       .  S
C407        H420   1.111       .  S
C421        C422   1.399       .  A
C421        C426   1.400       .  A
C421        H431   1.085       .  S
C422        C423   1.409       .  A
C422        C427   1.475       .  S
C423        C424   1.402       .  A
C423        C428   1.506       .  S
C424        C425   1.405       .  A
C424        H429   1.084       .  S
C425        C426   1.416       .  A
C426       C1330   1.507       .  S
C427        C432   1.410       .  A
C427        C436   1.400       .  A
C428        H444   1.110       .  S
C428        H445   1.109       .  S
C428        H446   1.111       .  S
C430       C1326   1.507       .  S
C430        H441   1.110   1_565  S
C430        H442   1.110   1_565  S
C430        H443   1.108   1_565  S
C432        C433   1.401       .  A
C432        C437   1.507       .  S
C433        C434   1.404       .  A
C433        H438   1.085       .  S
C434        C435   1.417       .  A
C435        C436   1.401       .  A
C435        C439   1.508       .  S
C436        H440   1.085       .  S
C437        H447   1.111       .  S
C437        H448   1.106       .  S
C437        H449   1.109       .  S
C439        H450   1.110       .  S
C439        H451   1.107       .  S
C439        H452   1.111       .  S
C453        C454   1.403       .  A
C453        C458   1.404       .  A
C453        H463   1.085       .  S
C454        C455   1.409       .  A
C454        C459   1.480       .  S
C455        C456   1.400       .  A
C455        C460   1.507       .  S
C456        C457   1.406       .  A
C456        H461   1.085       .  S
C457        C458   1.414       .  A
C458        C462   1.507       .  S
C459        C464   1.409       .  A
C459        C468   1.401       .  A
C460        H476   1.110       .  S
C460        H477   1.110       .  S
C460        H478   1.111       .  S
C462        H473   1.110       .  S
C462        H474   1.111       .  S
C462        H475   1.108       .  S
C464        C465   1.402       .  A
C464        C469   1.506       .  S
C465        C466   1.405       .  A
C465        H470   1.083       .  S
C466        C467   1.417       .  A
C467        C468   1.403       .  A
C467        C471   1.507       .  S
C468        H472   1.084       .  S
C469        H479   1.111       .  S
C469        H480   1.110       .  S
C469        H481   1.110       .  S
C471        H482   1.110       .  S
C471        H483   1.107       .  S
C471       H2284   1.110       .  S
H484       C2271   1.110       .  S
C485        C486   1.401       .  A
C485        C490   1.402       .  A
C485        H495   1.085       .  S
C486        C487   1.412       .  A
C486        C491   1.482       .  S
C487        C488   1.405       .  A
C487        C492   1.506       .  S
C488       C2289   1.403       .  A
C488       H2293   1.084       .  S
C489       C2288   1.403       .  A
C489       C2290   1.415   1_455  A
C490       C2289   1.415       .  A
C490        C494   1.508       .  S
C491        C496   1.413       .  A
C491        C500   1.399       .  A
C492        H508   1.110       .  S
C492        H509   1.110       .  S
C492        H510   1.111       .  S
H493       C2288   1.084       .  S
C494        H505   1.110       .  S
C494       H2306   1.110       .  S
C494       H2307   1.107       .  S
C496        C497   1.408       .  A
C496        C501   1.506       .  S
C497        C498   1.403       .  A
C497        H502   1.084       .  S
C498        C499   1.417       .  A
C499        C500   1.401       .  A
C499        C503   1.509       .  S
C500       H2304   1.085       .  S
C501        H511   1.111       .  S
C501        H512   1.110       .  S
C501        H513   1.110       .  S
C503        H515   1.108       .  S
C503       H2314   1.111       .  S
C503       H2316   1.110       .  S
H504       C2300   1.085       .  S
H506       C2294   1.110       .  S
H507       C2294   1.107       .  S
H514       C2303   1.111       .  S
H516       C2303   1.110       .  S
C517        C518   1.399       .  A
C517        C522   1.399       .  A
C517        H527   1.085       .  S
C518        C519   1.411       .  A
C518        C523   1.475       .  S
C519        C520   1.404       .  A
C519        C524   1.506       .  S
C520        C521   1.401       .  A
C520        H525   1.084       .  S
C521        C522   1.416       .  A
C522        C526   1.509       .  S
C523        C528   1.410       .  A
C523        C532   1.400       .  A
C524        H540   1.110       .  S
C524        H541   1.110       .  S
C524        H542   1.111       .  S
C526        H537   1.111       .  S
C526        H538   1.110       .  S
C526        H539   1.108       .  S
C528        C529   1.402       .  A
C528        C533   1.506       .  S
C529        C530   1.402       .  A
C529        H534   1.084       .  S
C530        C531   1.413       .  A
C531        C532   1.400       .  A
C531        C535   1.508       .  S
C532        H536   1.084       .  S
C533        H543   1.111       .  S
C533        H544   1.110       .  S
C533        H545   1.110       .  S
C535        H546   1.110       .  S
C535        H547   1.108       .  S
C535        H548   1.110       .  S
C549        C550   1.399       .  A
C549        C554   1.401       .  A
C549        H559   1.085       .  S
C550        C551   1.412       .  A
C550        C555   1.481       .  S
C551        C552   1.406       .  A
C551        C556   1.506       .  S
C552        C553   1.402       .  A
C552        H557   1.084       .  S
C553        C554   1.417       .  A
C554        C558   1.509       .  S
C555        C560   1.411       .  A
C555        C564   1.402       .  A
C556        H572   1.110       .  S
C556        H573   1.110       .  S
C556        H574   1.111       .  S
C558        H569   1.110       .  S
C558        H570   1.110       .  S
C558        H571   1.108       .  S
C560       C2361   1.404       .  A
C560       C2365   1.506       .  S
C561       C2360   1.404       .  A
C561       C2362   1.403   1_455  A
C561        H566   1.084       .  S
C562        C563   1.414       .  A
C562       C2361   1.403       .  A
C562       C1991   1.480       .  S
C563        C564   1.403       .  A
C563        C567   1.507       .  S
C564        H568   1.084       .  S
C565       C2360   1.506       .  S
C565        H575   1.111       .  S
C565        H576   1.110       .  S
C565        H577   1.110       .  S
C567        H578   1.111       .  S
C567        H579   1.108       .  S
C567        H580   1.110       .  S
C581        C582   1.401   1_565  A
C581       C1486   1.401       .  A
C581        H591   1.085       .  S
C582        C583   1.410       .  A
C582        C587   1.477       .  S
C583        C584   1.403       .  A
C583        C588   1.506       .  S
C584       C1485   1.403   1_545  A
C584       H1489   1.084       .  S
C585        C586   1.414       .  A
C585       C1484   1.403       .  A
C586       C1481   1.401       .  A
C586        C590   1.506       .  S
C587        C592   1.410       .  A
C587        C596   1.400       .  A
C588        H604   1.110       .  S
C588        H605   1.109       .  S
C588        H606   1.111       .  S
H589       C1484   1.084       .  S
C590        H601   1.110       .  S
C590        H603   1.108       .  S
C590       H1502   1.110       .  S
C592        C593   1.403       .  A
C592       C1497   1.506       .  S
C593        C594   1.403       .  A
C593        H598   1.084       .  S
C594        C595   1.416       .  A
C595        C596   1.402       .  A
C595        C599   1.508       .  S
C596        H600   1.085       .  S
C597       C1492   1.506       .  S
C597        H607   1.111       .  S
C597        H608   1.110       .  S
C597        H609   1.109       .  S
C599        H610   1.110       .  S
C599        H611   1.107       .  S
C599        H612   1.111       .  S
H602       C1490   1.110       .  S
C613        C614   1.399       .  A
C613        C618   1.400       .  A
C613        H623   1.086       .  S
C614        C615   1.410       .  A
C614        C619   1.476       .  S
C615        C616   1.403       .  A
C615        C620   1.507       .  S
C616        C617   1.405       .  A
C616        H621   1.085       .  S
C617        C618   1.417       .  A
C618        C622   1.509       .  S
C619        C624   1.409       .  A
C619        C628   1.402       .  A
C620        H636   1.109       .  S
C620        H637   1.109       .  S
C620        H638   1.111       .  S
C622        H633   1.110       .  S
C622        H634   1.110       .  S
C622        H635   1.106       .  S
C624        C625   1.401       .  A
C624        C629   1.506       .  S
C625        C626   1.404       .  A
C625        H630   1.084       .  S
C626        C627   1.415       .  A
C627        C628   1.402       .  A
C627        C631   1.508       .  S
C628        H632   1.084       .  S
C629        H639   1.111       .  S
C629        H640   1.110       .  S
C629        H641   1.109       .  S
C631        H642   1.110       .  S
C631        H643   1.107       .  S
C631        H644   1.111       .  S
C645        C646   1.398       .  A
C645        C650   1.399       .  A
C645       H1555   1.085       .  S
C646        C647   1.412       .  A
C646        C651   1.477       .  S
C647        C648   1.406       .  A
C647        C652   1.505       .  S
C648        C649   1.403       .  A
C648        H653   1.084       .  S
C649        C650   1.416       .  A
C650        C654   1.509       .  S
C651        C656   1.410       .  A
C651        C660   1.401   1_545  A
C652        H668   1.110       .  S
C652        H669   1.110       .  S
C652        H670   1.111       .  S
C654        H665   1.110       .  S
C654        H667   1.107       .  S
C654       H1566   1.111       .  S
H655       C1545   1.085       .  S
C656        C657   1.402       .  A
C656        C661   1.506       .  S
C657        C658   1.402   1_545  A
C657        H662   1.084       .  S
C658        C659   1.413       .  A
C658       C1104   1.477       .  S
C659        C660   1.402       .  A
C659       C1563   1.506       .  S
C660        H664   1.084       .  S
C661        H671   1.111       .  S
C661        H672   1.110       .  S
C661        H673   1.110       .  S
C663       C1559   1.506       .  S
C663        H674   1.110       .  S
C663        H675   1.107       .  S
C663       H1576   1.110       .  S
H666       C1554   1.111       .  S
H676       C1563   1.110       .  S
C677        C678   1.406       .  A
C677        C682   1.405       .  A
C677        H687   1.084       .  S
C678        C679   1.418       .  A
C678        C683   1.501       .  S
C679        C680   1.401       .  A
C679        C684   1.510       .  S
C680        C681   1.410       .  A
C680        H685   1.082       .  S
C681        C682   1.424       .  A
C682        C686   1.509       .  S
C683        C688   1.422       .  A
C683        C692   1.406       .  A
C684        H700   1.110       .  S
C684        H701   1.107       .  S
C684        H702   1.111       .  S
C686        H697   1.111       .  S
C686        H698   1.110       .  S
C686        H699   1.107       .  S
C688        C689   1.405       .  A
C688        C693   1.508       .  S
C689        C690   1.405       .  A
C689        H694   1.084       .  S
C690        C691   1.414       .  A
C691        C692   1.398       .  A
C691        C695   1.506   1_455  S
C692        H696   1.083       .  S
C693        H703   1.111       .  S
C693        H704   1.110       .  S
C693        H705   1.107       .  S
C695        H706   1.109       .  S
C695        H707   1.108       .  S
C695        H708   1.111       .  S
C709        C710   1.399       .  A
C709        C714   1.402       .  A
C709        H719   1.085       .  S
C710        C711   1.411       .  A
C710        C715   1.481       .  S
C711        C712   1.406       .  A
C711        C716   1.506       .  S
C712        C713   1.405       .  A
C712        H717   1.084       .  S
C713        C714   1.420       .  A
C714        C718   1.509       .  S
C715        C720   1.408       .  A
C715       C1624   1.404   1_545  A
C716        H732   1.110       .  S
C716        H733   1.109       .  S
C716        H734   1.111       .  S
C718        H729   1.110       .  S
C718        H730   1.111       .  S
C718        H731   1.106       .  S
C720        C721   1.400       .  A
C720        C725   1.507       .  S
C721       C1622   1.407   1_545  A
C721        H726   1.084       .  S
C722        C723   1.417       .  A
C722       C1621   1.407       .  A
C723        C724   1.407       .  A
C723        C727   1.506       .  S
C724       C1615   1.404       .  A
C724        H728   1.084       .  S
C725        H735   1.111       .  S
C725        H736   1.110       .  S
C725        H737   1.109       .  S
C727        H738   1.111       .  S
C727        H739   1.108       .  S
C727        H740   1.110       .  S
C741        C742   1.401       .  A
C741        C746   1.402       .  A
C741        H751   1.084       .  S
C742        C743   1.410       .  A
C742        C747   1.478       .  S
C743        C744   1.401       .  A
C743        C748   1.507       .  S
C744        C745   1.404       .  A
C744        H749   1.084       .  S
C745        C746   1.416       .  A
C746        C750   1.508       .  S
C747        C752   1.410       .  A
C747        C756   1.400       .  A
C748        H764   1.110       .  S
C748        H765   1.110       .  S
C748        H766   1.111   1_455  S
C750        H761   1.110       .  S
C750        H762   1.110       .  S
C750        H763   1.106       .  S
C752        C753   1.402       .  A
C752        C757   1.507       .  S
C753        C754   1.404       .  A
C753        H758   1.085       .  S
C754        C755   1.418       .  A
C755        C756   1.403       .  A
C755        C759   1.508       .  S
C756        H760   1.085       .  S
C757        H767   1.111       .  S
C757        H768   1.110       .  S
C757        H769   1.107       .  S
C759        H770   1.111       .  S
C759        H771   1.107       .  S
C759        H772   1.110       .  S
C773        C774   1.401       .  A
C773        C778   1.400       .  A
C773        H783   1.084       .  S
C774       C2575   1.412       .  A
C774        C779   1.479       .  S
C775        C776   1.402       .  A
C775       C2574   1.412   1_455  A
C775        C780   1.507       .  S
C776       C2577   1.403       .  A
C776        H781   1.084       .  S
C777        C778   1.414       .  A
C777       C2576   1.403       .  A
C777       C1987   1.479       .  S
C778        C782   1.508       .  S
C779        C784   1.411       .  A
C779        C788   1.400       .  A
C780        H796   1.109       .  S
C780        H797   1.110       .  S
C780        H798   1.111       .  S
C782        H793   1.111       .  S
C782        H794   1.110       .  S
C782        H795   1.107       .  S
C784        C785   1.402       .  A
C784        C789   1.507       .  S
C785        C786   1.405       .  A
C785        H790   1.084       .  S
C786        C787   1.417       .  A
C787        C788   1.401       .  A
C787        C791   1.508       .  S
C788        H792   1.085       .  S
C789        H799   1.111       .  S
C789        H800   1.109       .  S
C789       H2601   1.106       .  S
C791        H802   1.111       .  S
C791        H803   1.107       .  S
C791        H804   1.110       .  S
H801       C2589   1.106   1_455  S
C805        C806   1.410       .  A
C805        C810   1.404       .  A
C805        H815   1.083       .  S
C806        C807   1.419       .  A
C806        C811   1.503       .  S
C807        C808   1.403       .  A
C807        C812   1.509       .  S
C808        C809   1.409       .  A
C808        H813   1.085       .  S
C809        C810   1.415       .  A
C810        C814   1.505       .  S
C811        C816   1.417       .  A
C811        C820   1.406       .  A
C812        H828   1.110       .  S
C812        H829   1.107       .  S
C812        H830   1.111       .  S
C814        H825   1.111       .  S
C814        H826   1.110       .  S
C814        H827   1.107       .  S
C816        C817   1.403       .  A
C816        C821   1.509       .  S
C817        C818   1.413       .  A
C817        H822   1.080       .  S
C818        C819   1.423       .  A
C819        C820   1.405       .  A
C819        C823   1.508       .  S
C820        H824   1.083       .  S
C821        H831   1.111       .  S
C821        H832   1.110       .  S
C821        H833   1.108       .  S
C823        H834   1.110       .  S
C823        H835   1.108       .  S
C823        H836   1.111       .  S
C837        C838   1.401       .  A
C837        C842   1.404       .  A
C837        H847   1.084       .  S
C838        C839   1.411       .  A
C838        C843   1.483       .  S
C839        C840   1.405       .  A
C839        C844   1.506       .  S
C840        C841   1.404       .  A
C840        H845   1.084       .  S
C841        C842   1.417       .  A
C842        C846   1.508       .  S
C843        C848   1.410       .  A
C843        C852   1.404       .  A
C844        H860   1.110       .  S
C844        H861   1.110       .  S
C844        H862   1.111       .  S
C846        H857   1.110       .  S
C846        H858   1.110       .  S
C846        H859   1.107       .  S
C848        C849   1.402       .  A
C848        C853   1.508       .  S
C849        C850   1.405       .  A
C849        H854   1.085       .  S
C850        C851   1.415       .  A
C851        C852   1.407       .  A
C851        C855   1.507       .  S
C852        H856   1.085       .  S
C853        H863   1.111       .  S
C853        H864   1.110       .  S
C853        H865   1.110       .  S
C855        H866   1.111       .  S
C855        H867   1.108       .  S
C855        H868   1.110       .  S
C869        C870   1.402       .  A
C869        C874   1.405       .  A
C869        H879   1.085       .  S
C870        C871   1.409       .  A
C870        C875   1.479       .  S
C871        C872   1.402       .  A
C871        C876   1.507       .  S
C872        C873   1.407       .  A
C872        H877   1.084       .  S
C873        C874   1.416       .  A
C874        C878   1.507       .  S
C875        C880   1.410       .  A
C875       C2684   1.402       .  A
C876        H893   1.109       .  S
C876        H894   1.111       .  S
C876       H2692   1.110       .  S
C878        H889   1.108       .  S
C878        H890   1.111       .  S
C878        H891   1.110       .  S
C880        C881   1.401       .  A
C880        C885   1.508       .  S
C881       C2682   1.405       .  A
C881        H886   1.085       .  S
C882        C883   1.417       .  A
C882       C2681   1.405   1_455  A
C883        C884   1.404       .  A
C883        C887   1.507       .  S
C884       C2675   1.402   1_455  A
C884        H888   1.085       .  S
C885        H895   1.111       .  S
C885        H896   1.110       .  S
C885        H897   1.109       .  S
C887        H898   1.111       .  S
C887        H899   1.108       .  S
C887        H900   1.110       .  S
H892       C2676   1.110   1_455  S
C901        C902   1.401       .  A
C901        C906   1.406       .  A
C901       C1773   1.485       .  S
C902        C903   1.402       .  A
C902        H907   1.084       .  S
C903        C904   1.398       .  A
C903        C937   1.473       .  S
C904        C905   1.404       .  A
C904        H908   1.083       .  S
C905        C906   1.407       .  A
C905       C1056   1.476       .  S
C906        H909   1.082       .  S
C910        C911   1.407       .  A
C910        C915   1.405       .  A
C910       C1750   1.483       .  S
C911        C912   1.405       .  A
C911        H916   1.084       .  S
C912        C913   1.402       .  A
C912        C967   1.472       .  S
C913        C914   1.401       .  A
C913        H917   1.085       .  S
C914        C915   1.403       .  A
C914       C1026   1.474       .  S
C915        H918   1.084       .  S
C919        C920   1.414       .  A
C919        C924   1.417       .  A
C919       C1718   1.514       .  S
C920        C921   1.401       .  A
C920        H925   1.080       .  S
C921        C922   1.398       .  A
C921       C1066   1.474       .  S
C922        C923   1.401       .  A
C922        H926   1.085       .  S
C923        C924   1.406       .  A
C923        C987   1.478       .  S
C924        H927   1.080       .  S
C928        C929   1.399       .  A
C928        C933   1.398       .  A
C928       C1686   1.481       .  S
C929        C930   1.405       .  A
C929        H934   1.082       .  S
C930        C931   1.408       .  A
C930        C977   1.477       .  S
C931        C932   1.405       .  A
C931        H935   1.084       .  S
C932        C933   1.404       .  A
C932       C1076   1.479       .  S
C933        H936   1.082       .  S
C937        C974   1.465       .  S
C937       N2755   1.346       .  A
N938        N955   1.320       .  A
N938       N2760   1.320       .  A
N938       Co975   2.068   1_655  S
C939       C2777   1.461       .  S
C939        H984   1.081   1_655  S
C939        N964   1.338       .  A
H940        C981   1.081   1_455  S
C941        C945   1.460       .  S
C941        H970   1.081       .  S
C941        N965   1.334       .  A
Co942       N960   2.091       .  S
Co942       N950   2.078       .  S
Co942     Cl2786   2.434       .  S
N943        C981   1.346       .  A
N943       N2750   1.319       .  A
N943       Co944   2.090   1_655  S
Co944       N947   2.079       .  S
Co944      Cl986   2.467       .  S
C945        C992   1.476       .  S
C945        N983   1.351       .  A
N946        N953   1.318       .  A
N946        N976   1.324       .  A
N946       Co979   2.087       .  S
N947        N965   1.320       .  A
N947        N983   1.326       .  A
N948        C977   1.351       .  A
N948        N958   1.325       .  A
H949        C974   1.081       .  S
N950       N2743   1.319       .  A
N950        N971   1.322       .  A
N951        N969   1.320       .  A
N951        N956   1.325       .  A
C952        C980   1.458       .  S
C952       C1021   1.471       .  S
C952        N956   1.350       .  A
N953        C968   1.343       .  A
N953       Co975   2.086       .  S
C954        C957   1.455       .  S
C954        H988   1.082       .  S
C954        N982   1.337       .  A
N955       C2737   1.346       .  A
C957       C1001   1.471       .  S
C957       N2778   1.352       .  A
N958       N2764   1.320       .  A
N959        C985   1.339       .  A
N959        N961   1.320       .  A
N960        C974   1.342       .  A
N960       N2738   1.320       .  A
N961        N989   1.325       .  A
H962        C985   1.082       .  S
H963        C980   1.082       .  S
N964       N2758   1.320       .  A
N965       Co979   2.082       .  S
N966        N978   1.327       .  A
N966       N2782   1.319       .  A
C967       C2781   1.463       .  S
C967        N971   1.347       .  A
C968        C987   1.463       .  S
C968        H972   1.082       .  S
N969        C980   1.340       .  A
C973        C985   1.461       .  S
C973       C1012   1.478       .  S
C973        N989   1.351       .  A
Co975      Cl986   2.465       .  S
N976        C987   1.351       .  A
C977       C2739   1.461       .  S
N978       C2757   1.352       .  A
Co979      Cl986   2.432       .  S
C981       C2767   1.463       .  S
N982       N2766   1.319       .  A
Cl986     Co2742   2.434   1_455  S
C990        C991   1.407       .  A
C990        C995   1.407       .  A
C990       C1654   1.482       .  S
C991        C992   1.403       .  A
C991        H996   1.084       .  S
C992        C993   1.399       .  A
C993        C994   1.397       .  A
C993        H997   1.079       .  S
C994        C995   1.403       .  A
C994       C1046   1.476       .  S
C995        H998   1.084       .  S
C999       C1000   1.405       .  A
C999       C1004   1.409       .  A
C999       C1613   1.484       .  S
C1000      C1001   1.401       .  A
C1000      H1005   1.084       .  S
C1001      C1002   1.400       .  A
C1002      C1003   1.402       .  A
C1002      H1006   1.085       .  S
C1003      C1004   1.404       .  A
C1003      C1034   1.474       .  S
C1004      H1007   1.084       .  S
C1008      C1009   1.411       .  A
C1008      C1013   1.412       .  A
C1008      C1581   1.508       .  S
C1009      C1010   1.406       .  A
C1009      H1014   1.081       .  S
C1010      C1011   1.403       .  A
C1010      C1041   1.481       .  S
C1011      C1012   1.399       .  A
C1011      H1015   1.082       .  S
C1012      C1013   1.401       .  A
C1013      H1016   1.080       .  S
C1017      C1018   1.404       .  A
C1017      C1022   1.402       .  A
C1017      C1549   1.475       .  S
C1018      C1019   1.402       .  A
C1018      H1023   1.084       .  S
C1019      C1020   1.403       .  A
C1019      C1062   1.470       .  S
C1020      C1021   1.401       .  A
C1020      H1024   1.084       .  S
C1021      C1022   1.402       .  A
C1022      H1025   1.084       .  S
C1026      C1063   1.458       .  S
C1026      N1044   1.351       .  A
N1027      N1044   1.326       .  A
N1027      N1049   1.319       .  A
N1027     Co1064   2.088       .  S
C1028      C1066   1.463       .  S
C1028      H1073   1.082       .  S
C1028      N1053   1.343       .  A
H1029      C1070   1.081       .  S
C1030      C1034   1.454       .  S
C1030      H1059   1.082       .  S
C1030      N1054   1.335       .  A
Co1031     N1049   2.077       .  S
Co1031     N1039   2.089       .  S
Co1031     N1071   2.087       .  S
Co1031     N1047   2.078       .  S
Co1031    Cl1075   2.429       .  S
N1032      C1070   1.342       .  A
N1032      N1039   1.321       .  A
N1032     Co1033   2.080       .  S
Co1033     N1036   2.097       .  S
Co1033     N1053   2.093       .  S
Co1033     N1040   2.085       .  S
Co1033    Cl1075   2.473       .  S
C1034      N1072   1.354       .  A
N1035      N1042   1.320       .  A
N1035      N1065   1.328       .  A
N1035     Co1068   2.100       .  S
N1036      N1054   1.319       .  A
N1036      N1072   1.329       .  A
N1037      C1066   1.347       .  A
N1037      N1047   1.324       .  A
H1038      C1063   1.082       .  S
N1039      N1060   1.322       .  A
N1040      N1058   1.321       .  A
N1040      N1045   1.325       .  A
C1041      C1069   1.463       .  S
C1041      N1045   1.352       .  A
N1042      C1057   1.334       .  A
N1042     Co1064   2.070       .  S
C1043      C1046   1.462       .  S
C1043      H1077   1.081       .  S
C1043      N1071   1.336       .  A
C1046      N1067   1.350       .  A
N1047      N1053   1.320       .  A
N1048      C1074   1.345       .  A
N1048      N1050   1.319       .  A
N1048     Co1064   2.090       .  S
N1049      C1063   1.339       .  A
N1050      N1078   1.321       .  A
N1050     Co1068   2.071       .  S
H1051      C1074   1.081       .  S
H1052      C1069   1.081       .  S
N1054     Co1068   2.070       .  S
N1055      N1067   1.325       .  A
N1055      N1071   1.320       .  A
N1055     Co1064   2.075       .  S
C1056      C1070   1.461       .  S
C1056      N1060   1.350       .  A
C1057      C1076   1.458       .  S
C1057      H1061   1.081       .  S
N1058      C1069   1.340       .  A
N1058     Co1068   2.093       .  S
C1062      C1074   1.464       .  S
C1062      N1078   1.345       .  A
Co1064    Cl1075   2.469       .  S
N1065      C1076   1.354       .  A
Co1068    Cl1075   2.431       .  S
C1079      C1080   1.427       .  A
C1079      C1084   1.409       .  A
C1079      C1709   1.499       .  S
C1080      C1081   1.407       .  A
C1080      C1622   1.490       .  S
C1081      C1082   1.398       .  A
C1082      C1083   1.408       .  A
C1082      C1485   1.481       .  S
C1083      C1084   1.399       .  A
C1083      C1517   1.483       .  S
C1084      H1085   1.085       .  S
C1087      C1088   1.413       .  A
C1087      C2892   1.403       .  A
C1087      C3477   1.479       .  S
C1088      C1089   1.399       .  A
C1088      C1645   1.483       .  S
C1089      C1090   1.399   1_554  A
C1089      H1094   1.084       .  S
C1090      C1091   1.410       .  A
C1090      C1430   1.473       .  S
C1091      C2892   1.401   1_556  A
C1091      C3262   1.480   1_455  S
C1092      C2887   1.403       .  A
C1092      C2891   1.401   1_554  A
C1092      H1093   1.084       .  S
C1095      C1096   1.423       .  A
C1095      C1100   1.404       .  A
C1095      C1782   1.489       .  S
C1096      C1097   1.406       .  A
C1096      C1590   1.494       .  S
C1097      C1098   1.403       .  A
C1097      H1102   1.084       .  S
C1098      C1099   1.411       .  A
C1098      C1366   1.486       .  S
C1099      C1100   1.399       .  A
C1099      C1389   1.481       .  S
C1100      H2901   1.084       .  S
H1101      C2900   1.084       .  S
C1103      C1104   1.412       .  A
C1103      C1108   1.402       .  A
C1103      C1741   1.485       .  S
C1104      C1105   1.400       .  A
C1105      C1106   1.401       .  A
C1106      C1107   1.418       .  A
C1106      C1293   1.488   1_554  S
C1107      C1108   1.404       .  A
C1107      C1325   1.483   1_554  S
C1108      H1109   1.085       .  S
C1111      C1112   1.400       .  A
C1111      C1116   1.403       .  A
C1111      C1334   1.478       .  S
C1112      C1113   1.402       .  A
C1112      H1117   1.084       .  S
C1113      C1114   1.401       .  A
C1113      C1165   1.473       .  S
C1114      C1115   1.403       .  A
C1114      H1118   1.082       .  S
C1115      C1116   1.403       .  A
C1115      C1266   1.473       .  S
C1116      H1119   1.083       .  S
C1120      C1121   1.405       .  A
C1120      C1125   1.405       .  A
C1120      C1453   1.477       .  S
C1121      C1122   1.403       .  A
C1121      H1126   1.084       .  S
C1122      C1123   1.400       .  A
C1122      C1244   1.469       .  S
C1123      C1124   1.398       .  A
C1123      H1127   1.085       .  S
C1124      C1125   1.402       .  A
C1124      C1185   1.469       .  S
C1125      H1128   1.084       .  S
C1129      C1130   1.405       .  A
C1129      C1134   1.403       .  A
C1129      C1302   1.483       .  S
C1130      C1131   1.405       .  A
C1130      H1135   1.084       .  S
C1131      C1132   1.404       .  A
C1131      C1251   1.479       .  S
C1132      C1133   1.403       .  A
C1132      H1136   1.082       .  S
C1133      C1134   1.404       .  A
C1133      C1201   1.477       .  S
C1134      H1137   1.083       .  S
C1138      C1139   1.400       .  A
C1138      C1143   1.403       .  A
C1138      C1421   1.472       .  S
C1139      C1140   1.400       .  A
C1139      H1144   1.084       .  S
C1140      C1141   1.405       .  A
C1140      C1276   1.470       .  S
C1141      C1142   1.405       .  A
C1141      H1145   1.085       .  S
C1142      C1143   1.403       .  A
C1142      C1215   1.473       .  S
C1143      H1146   1.084       .  S
C1147      C1148   1.405       .  A
C1147      C1152   1.404       .  A
C1147      C1357   1.480       .  S
C1148      C1149   1.404       .  A
C1148      H1153   1.084       .  S
C1149      C1150   1.402       .  A
C1149      C1180   1.472       .  S
C1150      C1151   1.401       .  A
C1150      H1154   1.084       .  S
C1151      C1152   1.400       .  A
C1151      C1272   1.468       .  S
C1152      H1155   1.084       .  S
C1156      C1157   1.398       .  A
C1156      C1161   1.397       .  A
C1156      C1494   1.478       .  S
C1157      C1158   1.405       .  A
C1157      H1162   1.082       .  S
C1158      C1159   1.406       .  A
C1158      C1286   1.479       .  S
C1159      C1160   1.407       .  A
C1159      H1163   1.084       .  S
C1160      C1161   1.405       .  A
C1160      C1205   1.477       .  S
C1161      H1164   1.082       .  S
C1165      C1202   1.461       .  S
C1165      N1183   1.348       .  A
N1166      N1183   1.322       .  A
N1166      N1188   1.320       .  A
N1166     Co1203   2.074       .  S
C1167      C1205   1.459       .  S
C1167      H1212   1.081       .  S
C1167      N1192   1.336       .  A
H1168      C1209   1.082       .  S
C1169      C1173   1.461       .  S
C1169      H1198   1.081       .  S
C1169      N1193   1.335       .  A
Co1170     N1188   2.086       .  S
Co1170     N1178   2.083       .  S
Co1170     N1210   2.078       .  S
Co1170     N1186   2.093       .  S
Co1170    Cl1214   2.433       .  S
N1171      C1209   1.345       .  A
N1171      N1178   1.319       .  A
N1171     Co1172   2.089       .  S
Co1172     N1175   2.075       .  S
Co1172     N1192   2.072       .  S
Co1172     N1179   2.091       .  S
Co1172    Cl1214   2.468       .  S
C1173      C1231   1.475       .  S
C1173      N1211   1.350       .  A
N1174      N1181   1.319       .  A
N1174      N1204   1.323       .  A
N1174     Co1207   2.079       .  S
N1175      N1193   1.320       .  A
N1175      N1211   1.325       .  A
N1176      C1205   1.352       .  A
N1176      N1186   1.326       .  A
H1177      C1202   1.081       .  S
N1178      N1199   1.323       .  A
N1179      N1197   1.319       .  A
N1179      N1184   1.327       .  A
C1180      C1208   1.456       .  S
C1180      N1184   1.352       .  A
N1181      C1196   1.344       .  A
N1181     Co1203   2.092       .  S
C1182      C1185   1.456       .  S
C1182      H1216   1.081       .  S
C1182      N1210   1.337       .  A
C1185      N1206   1.350       .  A
N1186      N1192   1.320       .  A
N1187      C1213   1.340       .  A
N1187      N1189   1.319       .  A
N1187     Co1203   2.075       .  S
N1188      C1202   1.339       .  A
N1189      N1217   1.324       .  A
N1189     Co1207   2.091       .  S
H1190      C1213   1.081       .  S
H1191      C1208   1.082       .  S
N1193     Co1207   2.083       .  S
N1194      N1206   1.326       .  A
N1194      N1210   1.320       .  A
N1194     Co1203   2.086       .  S
C1195      C1209   1.463       .  S
C1195      C1220   1.472       .  S
C1195      N1199   1.348       .  A
C1196      C1215   1.464       .  S
C1196      H1200   1.082       .  S
N1197      C1208   1.337       .  A
N1197     Co1207   2.073       .  S
C1201      C1213   1.460       .  S
C1201      N1217   1.352       .  A
Co1203    Cl1214   2.468       .  S
N1204      C1215   1.347       .  A
Co1207    Cl1214   2.430       .  S
C1218      C1219   1.405       .  A
C1218      C1223   1.406       .  A
C1218      C1398   1.480       .  S
C1219      C1220   1.404       .  A
C1219      H1224   1.084       .  S
C1220      C1221   1.402       .  A
C1221      C1222   1.402       .  A
C1221      H1225   1.085       .  S
C1222      C1223   1.405       .  A
C1222      C1236   1.476       .  S
C1223      H1226   1.084       .  S
C1227      C1228   1.402       .  A
C1227      C1232   1.405       .  A
C1227      C1526   1.477       .  S
C1228      C1229   1.400       .  A
C1228      H1233   1.084       .  S
C1229      C1230   1.399       .  A
C1229      C1256   1.471       .  S
C1230      C1231   1.399       .  A
C1230      H1234   1.079       .  S
C1231      C1232   1.404       .  A
C1232      H1235   1.084       .  S
C1236      C1273   1.458       .  S
C1236      N1254   1.352       .  A
N1237      N1254   1.327       .  A
N1237      N1259   1.319       .  A
N1237     Co3074   2.091       .  S
C1238      C1276   1.463       .  S
C1238      H1283   1.082       .  S
C1238      N1263   1.343       .  A
H1239      C1280   1.081       .  S
C1240      C1244   1.454       .  S
C1240      H1269   1.082       .  S
C1240      N1264   1.335       .  A
Co1241     N3059   2.081   1_455  S
Co1241     N3049   2.081   1_455  S
Co1241     N1281   2.075       .  S
Co1241     N1257   2.078       .  S
Co1241    Cl1285   2.429       .  S
N1242      C1280   1.340       .  A
N1242      N1249   1.320       .  A
N1242     Co3043   2.078       .  S
Co1243     N3042   2.078   1_455  S
Co1243     N2146   2.088   1_465  S
Co1243     N1263   2.088       .  S
Co1243    Cl1285   2.469       .  S
C1244      N1282   1.352       .  A
N1245      N1252   1.320       .  A
N1245      N1275   1.327       .  A
N1245     Co3078   2.099       .  S
N1246      N1264   1.320       .  A
N1246      N1282   1.327       .  A
N1246     Co2143   2.088       .  S
N1247      C1276   1.347       .  A
N1247      N1257   1.323       .  A
H1248      C1273   1.082       .  S
N1249      N1270   1.322       .  A
N1249     Co3041   2.081       .  S
N1250      N1268   1.320       .  A
N1250      N1255   1.325       .  A
C1251      C1279   1.462       .  S
C1251      N1255   1.351       .  A
N1252      C1267   1.335       .  A
N1252     Co2174   2.070       .  S
C1253      C1256   1.459       .  S
C1253      H1287   1.081       .  S
C1253      N1281   1.335       .  A
C1256      N1277   1.349       .  A
N1257      N1263   1.319       .  A
N1258      C1284   1.343       .  A
N1258      N1260   1.319       .  A
N1259      C1273   1.339       .  A
N1259     Co3041   2.081       .  S
N1260      N1288   1.322       .  A
N1260     Co1278   2.073       .  S
H1261      C1284   1.082       .  S
H1262      C1279   1.081       .  S
N1264     Co3078   2.072       .  S
N1265      N1277   1.324       .  A
N1265      N1281   1.319       .  A
N1265     Co1274   2.072       .  S
C1266      C1280   1.461       .  S
C1266      N1270   1.349       .  A
C1267      C1286   1.458       .  S
C1267      H1271   1.081       .  S
N1268      C1279   1.340       .  A
N1268     Co1278   2.090       .  S
C1272      C1284   1.462       .  S
C1272      N1288   1.347       .  A
Co1274     N3037   2.091   1_455  S
Co1274     N2152   2.070   1_465  S
Co1274    Cl1285   2.466       .  S
N1275      C1286   1.354       .  A
Co1278     N3045   2.099   1_455  S
Co1278     N3064   2.072   1_455  S
C1289      C1290   1.401       .  A
C1290      C1291   1.409       .  A
C1290      C1295   1.480       .  S
C1291      C1292   1.403       .  A
C1291      C1296   1.506       .  S
C1292      H1297   1.084       .  S
C1293      C1294   1.416       .  A
C1294      C1298   1.507       .  S
C1295      C1300   1.411       .  A
C1295      C1304   1.400       .  A
C1296      H1312   1.110       .  S
C1296      H1313   1.109       .  S
C1296      H1314   1.111       .  S
C1298      H1309   1.110       .  S
C1298      H1310   1.110       .  S
C1298      H1311   1.108       .  S
C1300      C1301   1.403       .  A
C1301      C1302   1.404       .  A
C1301      H1306   1.084       .  S
C1302      C1303   1.418       .  A
C1303      C1304   1.404       .  A
C1303      C1307   1.508       .  S
C1304      H1308   1.085       .  S
C1305      H1315   1.111       .  S
C1305      H1316   1.106   1_545  S
C1305      H1317   1.109       .  S
C1307      H1318   1.110       .  S
C1307      H1319   1.107       .  S
C1307      H1320   1.111       .  S
C1321      C1322   1.399       .  A
C1321      C1326   1.400       .  A
C1321      H1331   1.085       .  S
C1322      C1323   1.409       .  A
C1322      C1327   1.475       .  S
C1323      C1324   1.402       .  A
C1323      C1328   1.506       .  S
C1324      C1325   1.405       .  A
C1324      H1329   1.084       .  S
C1325      C1326   1.416       .  A
C1327      C1332   1.410       .  A
C1327      C1336   1.400       .  A
C1328      H1344   1.110       .  S
C1328      H1345   1.109       .  S
C1328      H1346   1.111       .  S
C1330      H1341   1.110       .  S
C1330      H1342   1.110       .  S
C1330      H1343   1.108       .  S
C1332      C1333   1.401       .  A
C1332      C1337   1.507       .  S
C1333      C1334   1.404       .  A
C1333      H1338   1.085       .  S
C1334      C1335   1.417       .  A
C1335      C1336   1.401       .  A
C1335      C1339   1.508       .  S
C1336      H1340   1.085       .  S
C1337      H1347   1.111       .  S
C1337      H1348   1.106       .  S
C1337      H1349   1.109       .  S
C1339      H1350   1.110       .  S
C1339      H1351   1.107       .  S
C1339      H1352   1.111       .  S
C1353      C1354   1.403       .  A
C1353      C1358   1.404       .  A
C1353      H1363   1.085       .  S
C1354      C1355   1.409       .  A
C1354      C1359   1.480       .  S
C1355      C1356   1.401       .  A
C1355      C1360   1.507       .  S
C1356      C1357   1.406       .  A
C1356      H1361   1.085       .  S
C1357      C1358   1.414       .  A
C1358      C1362   1.507       .  S
C1359      C1364   1.410       .  A
C1359      C1368   1.401       .  A
C1360      H1376   1.110       .  S
C1360      H1377   1.110       .  S
C1360      H1378   1.111       .  S
C1362      H1373   1.110       .  S
C1362      H1374   1.111       .  S
C1362      H1375   1.108       .  S
C1364      C1365   1.402       .  A
C1364      C1369   1.506       .  S
C1365      C1366   1.405       .  A
C1365      H1370   1.083       .  S
C1366      C1367   1.417       .  A
C1367      C1368   1.403       .  A
C1367      C1371   1.507       .  S
C1368      H1372   1.084       .  S
C1369      H1379   1.111       .  S
C1369      H1380   1.110       .  S
C1369      H1381   1.110       .  S
C1371      H1382   1.110       .  S
C1371      H1383   1.107       .  S
C1371      H3184   1.110       .  S
H1384      C3171   1.110       .  S
C1385      C1386   1.401       .  A
C1385      C1390   1.402       .  A
C1385      H1395   1.085       .  S
C1386      C1387   1.412       .  A
C1386      C1391   1.482       .  S
C1387      C1388   1.405       .  A
C1387      C1392   1.506       .  S
C1388      C3189   1.403       .  A
C1388      H3193   1.084       .  S
C1389      C3188   1.403       .  A
C1389      C3190   1.415   1_455  A
C1390      C3189   1.415       .  A
C1390      C1394   1.508       .  S
C1391      C1396   1.413       .  A
C1391      C1400   1.399       .  A
C1392      H1408   1.110       .  S
C1392      H1409   1.110       .  S
C1392      H1410   1.111       .  S
H1393      C3188   1.084       .  S
C1394      H1405   1.110       .  S
C1394      H3206   1.110       .  S
C1394      H3207   1.107       .  S
C1396      C1397   1.408       .  A
C1396      C1401   1.506       .  S
C1397      C1398   1.403       .  A
C1397      H1402   1.084       .  S
C1398      C1399   1.417       .  A
C1399      C1400   1.401       .  A
C1399      C1403   1.509       .  S
C1400      H3204   1.085       .  S
C1401      H1411   1.111       .  S
C1401      H1412   1.110       .  S
C1401      H1413   1.110       .  S
C1403      H3214   1.111       .  S
C1403      H1415   1.108       .  S
C1403      H3216   1.110       .  S
H1404      C3200   1.085       .  S
H1406      C3194   1.110       .  S
H1407      C3194   1.107       .  S
H1414      C3203   1.111       .  S
H1416      C3203   1.110       .  S
C1417      C1418   1.399       .  A
C1417      C1422   1.399       .  A
C1417      H1427   1.085       .  S
C1418      C1419   1.411       .  A
C1418      C1423   1.475       .  S
C1419      C1420   1.404       .  A
C1419      C1424   1.506       .  S
C1420      C1421   1.401       .  A
C1420      H1425   1.084       .  S
C1421      C1422   1.416       .  A
C1422      C1426   1.509       .  S
C1423      C1428   1.410       .  A
C1423      C1432   1.400       .  A
C1424      H1440   1.110       .  S
C1424      H1441   1.110       .  S
C1424      H1442   1.111       .  S
C1426      H1437   1.111       .  S
C1426      H1438   1.110       .  S
C1426      H1439   1.108       .  S
C1428      C1429   1.402       .  A
C1428      C1433   1.506       .  S
C1429      C1430   1.402       .  A
C1429      H1434   1.084       .  S
C1430      C1431   1.413       .  A
C1431      C1432   1.400       .  A
C1431      C1435   1.508       .  S
C1432      H1436   1.084       .  S
C1433      H1443   1.111       .  S
C1433      H1444   1.110       .  S
C1433      H1445   1.110       .  S
C1435      H1446   1.110       .  S
C1435      H1447   1.108       .  S
C1435      H1448   1.110       .  S
C1449      C1450   1.399       .  A
C1449      C1454   1.401       .  A
C1449      H1459   1.085       .  S
C1450      C1451   1.412       .  A
C1450      C1455   1.481       .  S
C1451      C1452   1.406       .  A
C1451      C1456   1.506       .  S
C1452      C1453   1.402       .  A
C1452      H1457   1.084       .  S
C1453      C1454   1.417       .  A
C1454      C1458   1.509       .  S
C1455      C1460   1.411       .  A
C1455      C1464   1.402       .  A
C1456      H1472   1.110       .  S
C1456      H1473   1.110       .  S
C1456      H1474   1.111       .  S
C1458      H1469   1.110       .  S
C1458      H1470   1.110       .  S
C1458      H1471   1.108       .  S
C1460      C3261   1.404       .  A
C1460      C3265   1.506       .  S
C1461      C3260   1.404       .  A
C1461      C3262   1.403   1_455  A
C1461      H1466   1.084       .  S
C1462      C3261   1.403       .  A
C1462      C1463   1.414       .  A
C1462      C2891   1.480       .  S
C1463      C1464   1.403       .  A
C1463      C1467   1.507       .  S
C1464      H1468   1.084       .  S
C1465      C3260   1.506       .  S
C1465      H1475   1.111       .  S
C1465      H1476   1.110       .  S
C1465      H1477   1.110       .  S
C1467      H1478   1.111       .  S
C1467      H1479   1.108       .  S
C1467      H1480   1.110       .  S
C1481      C1482   1.401       .  A
C1481      H1491   1.085       .  S
C1482      C1483   1.410       .  A
C1482      C1487   1.477       .  S
C1483      C1484   1.403       .  A
C1483      C1488   1.506       .  S
C1485      C1486   1.414       .  A
C1486      C1490   1.506       .  S
C1487      C1492   1.410       .  A
C1487      C1496   1.400       .  A
C1488      H1504   1.110       .  S
C1488      H1505   1.109       .  S
C1488      H1506   1.111       .  S
C1490      H1501   1.110       .  S
C1490      H1503   1.108       .  S
C1492      C1493   1.403       .  A
C1493      C1494   1.404       .  A
C1493      H1498   1.084       .  S
C1494      C1495   1.416       .  A
C1495      C1496   1.402       .  A
C1495      C1499   1.508       .  S
C1496      H1500   1.085       .  S
C1497      H1507   1.111       .  S
C1497      H1508   1.110   1_545  S
C1497      H1509   1.109       .  S
C1499      H1510   1.110       .  S
C1499      H1511   1.107       .  S
C1499      H1512   1.111       .  S
C1513      C1514   1.399       .  A
C1513      C1518   1.400       .  A
C1513      H1523   1.086       .  S
C1514      C1515   1.410       .  A
C1514      C1519   1.476       .  S
C1515      C1516   1.403       .  A
C1515      C1520   1.507       .  S
C1516      C1517   1.405       .  A
C1516      H1521   1.085       .  S
C1517      C1518   1.417       .  A
C1518      C1522   1.509       .  S
C1519      C1524   1.409       .  A
C1519      C1528   1.402       .  A
C1520      H1536   1.109       .  S
C1520      H1537   1.109       .  S
C1520      H1538   1.111   1_565  S
C1522      H1533   1.110       .  S
C1522      H1534   1.110       .  S
C1522      H1535   1.106       .  S
C1524      C1525   1.401       .  A
C1524      C1529   1.506       .  S
C1525      C1526   1.404       .  A
C1525      H1530   1.084       .  S
C1526      C1527   1.415       .  A
C1527      C1528   1.402       .  A
C1527      C1531   1.508       .  S
C1528      H1532   1.084       .  S
C1529      H1539   1.111       .  S
C1529      H1540   1.110       .  S
C1529      H1541   1.109       .  S
C1531      H1542   1.110       .  S
C1531      H1543   1.107       .  S
C1531      H1544   1.111       .  S
C1545      C1546   1.398       .  A
C1545      C1550   1.399       .  A
C1546      C1547   1.412       .  A
C1546      C1551   1.477       .  S
C1547      C1548   1.406       .  A
C1547      C1552   1.505       .  S
C1548      C1549   1.403       .  A
C1548      H1553   1.084       .  S
C1549      C1550   1.416       .  A
C1550      C1554   1.509       .  S
C1551      C1556   1.410       .  A
C1551      C1560   1.401       .  A
C1552      H1568   1.110       .  S
C1552      H1569   1.110       .  S
C1552      H1570   1.111       .  S
C1554      H1565   1.110       .  S
C1554      H1567   1.107       .  S
C1556      C1557   1.402       .  A
C1556      C1561   1.506       .  S
C1557      C1558   1.402       .  A
C1557      H1562   1.084       .  S
C1558      C1559   1.413       .  A
C1559      C1560   1.402       .  A
C1560      H1564   1.084       .  S
C1561      H1571   1.111       .  S
C1561      H1572   1.110       .  S
C1561      H1573   1.110       .  S
C1563      H1574   1.110       .  S
C1563      H1575   1.107       .  S
C1577      C1578   1.406       .  A
C1577      C1582   1.405       .  A
C1577      H1587   1.084       .  S
C1578      C1579   1.418       .  A
C1578      C1583   1.501       .  S
C1579      C1580   1.401       .  A
C1579      C1584   1.510       .  S
C1580      C1581   1.410       .  A
C1580      H1585   1.082       .  S
C1581      C1582   1.424       .  A
C1582      C1586   1.509       .  S
C1583      C1588   1.422       .  A
C1583      C1592   1.406       .  A
C1584      H1600   1.110       .  S
C1584      H1601   1.107       .  S
C1584      H1602   1.111       .  S
C1586      H1597   1.111       .  S
C1586      H1598   1.110       .  S
C1586      H1599   1.107       .  S
C1588      C1589   1.405       .  A
C1588      C1593   1.508       .  S
C1589      C1590   1.405       .  A
C1589      H1594   1.084       .  S
C1590      C1591   1.414       .  A
C1591      C1592   1.398       .  A
C1591      C1595   1.506   1_455  S
C1592      H1596   1.083       .  S
C1593      H1603   1.111       .  S
C1593      H1604   1.110       .  S
C1593      H1605   1.107       .  S
C1595      H1606   1.109       .  S
C1595      H1607   1.108       .  S
C1595      H1608   1.111       .  S
C1609      C1610   1.399       .  A
C1609      C1614   1.402       .  A
C1609      H1619   1.085       .  S
C1610      C1611   1.411       .  A
C1610      C1615   1.481       .  S
C1611      C1612   1.406       .  A
C1611      C1616   1.506       .  S
C1612      C1613   1.405       .  A
C1612      H1617   1.084       .  S
C1613      C1614   1.420       .  A
C1614      C1618   1.509       .  S
C1615      C1620   1.408       .  A
C1616      H1632   1.110       .  S
C1616      H1633   1.109       .  S
C1616      H1634   1.111       .  S
C1618      H1629   1.110       .  S
C1618      H1630   1.111       .  S
C1618      H1631   1.106       .  S
C1620      C1621   1.400       .  A
C1620      C1625   1.507       .  S
C1621      H1626   1.084       .  S
C1622      C1623   1.417       .  A
C1623      C1624   1.407       .  A
C1623      C1627   1.506       .  S
C1624      H1628   1.084       .  S
C1625      H1635   1.111       .  S
C1625      H1636   1.110       .  S
C1625      H1637   1.109       .  S
C1627      H1638   1.111       .  S
C1627      H1639   1.108       .  S
C1627      H1640   1.110       .  S
C1641      C1642   1.401       .  A
C1641      C1646   1.402       .  A
C1641      H1651   1.084       .  S
C1642      C1643   1.410       .  A
C1642      C1647   1.478       .  S
C1643      C1644   1.401       .  A
C1643      C1648   1.507       .  S
C1644      C1645   1.404       .  A
C1644      H1649   1.084       .  S
C1645      C1646   1.416       .  A
C1646      C1650   1.508       .  S
C1647      C1652   1.410       .  A
C1647      C1656   1.400       .  A
C1648      H1664   1.110       .  S
C1648      H1665   1.110       .  S
C1648      H1666   1.111   1_455  S
C1650      H1661   1.110       .  S
C1650      H1662   1.110       .  S
C1650      H1663   1.106       .  S
C1652      C1653   1.402       .  A
C1652      C1657   1.507       .  S
C1653      C1654   1.404       .  A
C1653      H1658   1.085       .  S
C1654      C1655   1.418       .  A
C1655      C1656   1.403       .  A
C1655      C1659   1.508       .  S
C1656      H1660   1.085       .  S
C1657      H1667   1.111       .  S
C1657      H1668   1.110       .  S
C1657      H1669   1.107       .  S
C1659      H1670   1.111       .  S
C1659      H1671   1.107       .  S
C1659      H1672   1.110       .  S
C1673      C1674   1.401       .  A
C1673      C1678   1.400       .  A
C1673      H1683   1.084       .  S
C1674      C3475   1.412       .  A
C1674      C1679   1.479       .  S
C1675      C3474   1.412   1_455  A
C1675      C1676   1.402       .  A
C1675      C1680   1.507       .  S
C1676      C3477   1.403       .  A
C1676      H1681   1.084       .  S
C1677      C3476   1.403       .  A
C1677      C1678   1.414       .  A
C1677      C2887   1.479       .  S
C1678      C1682   1.508       .  S
C1679      C1684   1.411       .  A
C1679      C1688   1.400       .  A
C1680      H1696   1.109       .  S
C1680      H1697   1.110       .  S
C1680      H1698   1.111       .  S
C1682      H1693   1.111       .  S
C1682      H1694   1.110       .  S
C1682      H1695   1.107       .  S
C1684      C1685   1.402       .  A
C1684      C1689   1.507       .  S
C1685      C1686   1.405       .  A
C1685      H1690   1.084       .  S
C1686      C1687   1.417       .  A
C1687      C1688   1.401       .  A
C1687      C1691   1.508       .  S
C1688      H1692   1.085       .  S
C1689      H1699   1.111       .  S
C1689      H1700   1.109       .  S
C1689      H3501   1.106       .  S
C1691      H1702   1.111       .  S
C1691      H1703   1.107       .  S
C1691      H1704   1.110       .  S
H1701      C3489   1.106   1_455  S
C1705      C1706   1.410       .  A
C1705      C1710   1.404       .  A
C1705      H1715   1.083       .  S
C1706      C1707   1.419       .  A
C1706      C1711   1.503       .  S
C1707      C1708   1.403       .  A
C1707      C1712   1.509       .  S
C1708      C1709   1.409       .  A
C1708      H1713   1.085       .  S
C1709      C1710   1.415       .  A
C1710      C1714   1.505       .  S
C1711      C1716   1.417       .  A
C1711      C1720   1.406       .  A
C1712      H1728   1.110       .  S
C1712      H1729   1.107       .  S
C1712      H1730   1.111       .  S
C1714      H1725   1.111   1_565  S
C1714      H1726   1.110   1_565  S
C1714      H1727   1.107   1_565  S
C1716      C1717   1.403       .  A
C1716      C1721   1.509       .  S
C1717      C1718   1.413       .  A
C1717      H1722   1.080       .  S
C1718      C1719   1.423       .  A
C1719      C1720   1.405       .  A
C1719      C1723   1.508       .  S
C1720      H1724   1.083       .  S
C1721      H1731   1.111       .  S
C1721      H1732   1.110       .  S
C1721      H1733   1.108       .  S
C1723      H1734   1.110       .  S
C1723      H1735   1.108       .  S
C1723      H1736   1.111       .  S
C1737      C1738   1.401       .  A
C1737      C1742   1.404       .  A
C1737      H1747   1.084       .  S
C1738      C1739   1.411       .  A
C1738      C1743   1.483       .  S
C1739      C1740   1.405       .  A
C1739      C1744   1.506       .  S
C1740      C1741   1.404       .  A
C1740      H1745   1.084       .  S
C1741      C1742   1.417       .  A
C1742      C1746   1.508       .  S
C1743      C1748   1.410       .  A
C1743      C1752   1.404       .  A
C1744      H1760   1.110       .  S
C1744      H1761   1.110       .  S
C1744      H1762   1.111       .  S
C1746      H1757   1.110       .  S
C1746      H1758   1.110       .  S
C1746      H1759   1.107       .  S
C1748      C1749   1.402       .  A
C1748      C1753   1.508       .  S
C1749      C1750   1.405       .  A
C1749      H1754   1.085       .  S
C1750      C1751   1.415       .  A
C1751      C1752   1.407       .  A
C1751      C1755   1.507       .  S
C1752      H1756   1.085       .  S
C1753      H1763   1.111       .  S
C1753      H1764   1.110       .  S
C1753      H1765   1.110       .  S
C1755      H1766   1.111       .  S
C1755      H1767   1.108       .  S
C1755      H1768   1.110       .  S
C1769      C1770   1.402       .  A
C1769      C1774   1.405       .  A
C1769      H1779   1.085       .  S
C1770      C1771   1.409       .  A
C1770      C1775   1.479       .  S
C1771      C1772   1.402       .  A
C1771      C1776   1.507       .  S
C1772      C1773   1.407       .  A
C1772      H1777   1.084       .  S
C1773      C1774   1.416       .  A
C1774      C1778   1.507       .  S
C1775      C1780   1.410       .  A
C1775      C3584   1.402       .  A
C1776      H3592   1.110       .  S
C1776      H1793   1.109       .  S
C1776      H1794   1.111       .  S
C1778      H1789   1.108       .  S
C1778      H1790   1.111       .  S
C1778      H1791   1.110       .  S
C1780      C1781   1.401       .  A
C1780      C1785   1.508       .  S
C1781      C3582   1.405       .  A
C1781      H1786   1.085       .  S
C1782      C3581   1.405   1_455  A
C1782      C1783   1.417       .  A
C1783      C1784   1.404       .  A
C1783      C1787   1.507       .  S
C1784      C3575   1.402   1_455  A
C1784      H1788   1.085       .  S
C1785      H1795   1.111       .  S
C1785      H1796   1.110       .  S
C1785      H1797   1.109       .  S
C1787      H1798   1.111       .  S
C1787      H1799   1.108       .  S
C1787      H1800   1.110       .  S
H1792      C3576   1.110   1_455  S
C1801      C1802   1.401       .  A
C1801      C1806   1.406       .  A
C1801      C2673   1.485       .  S
C1802      C1803   1.402       .  A
C1802      H1807   1.084       .  S
C1803      C1804   1.398       .  A
C1803      C1837   1.473       .  S
C1804      C1805   1.404       .  A
C1804      H1808   1.083       .  S
C1805      C1806   1.407       .  A
C1805      C1956   1.476       .  S
C1806      H1809   1.082       .  S
C1810      C1811   1.407       .  A
C1810      C1815   1.405       .  A
C1810      C2650   1.483       .  S
C1811      C1812   1.405       .  A
C1811      H1816   1.084       .  S
C1812      C1813   1.402       .  A
C1812      C1867   1.472       .  S
C1813      C1814   1.401       .  A
C1813      H1817   1.085       .  S
C1814      C1815   1.402       .  A
C1814      C1926   1.473       .  S
C1815      H1818   1.084       .  S
C1819      C1820   1.414       .  A
C1819      C1824   1.417       .  A
C1819      C2618   1.514       .  S
C1820      C1821   1.401       .  A
C1820      H1825   1.080       .  S
C1821      C1822   1.398       .  A
C1821      C1966   1.474       .  S
C1822      C1823   1.401       .  A
C1822      H1826   1.085       .  S
C1823      C1824   1.406       .  A
C1823      C1887   1.478       .  S
C1824      H1827   1.080       .  S
C1828      C1829   1.399       .  A
C1828      C1833   1.398       .  A
C1828      C2586   1.481       .  S
C1829      C1830   1.405       .  A
C1829      H1834   1.082       .  S
C1830      C1831   1.408       .  A
C1830      C1877   1.477       .  S
C1831      C1832   1.405       .  A
C1831      H1835   1.084       .  S
C1832      C1833   1.404       .  A
C1832      C1976   1.479       .  S
C1833      H1836   1.082       .  S
C1837      C1874   1.465       .  S
N1838      N1855   1.320       .  A
N1838     Co1875   2.068       .  S
C1839      H1884   1.081       .  S
C1839      N1864   1.338       .  A
H1840      C1881   1.081       .  S
C1841      C1845   1.460       .  S
C1841      H1870   1.081       .  S
C1841      N1865   1.334       .  A
Co1842     N1860   2.091       .  S
Co1842     N1850   2.078       .  S
Co1842     N2782   2.075       .  S
Co1842     N2758   2.091       .  S
N1843      C1881   1.346       .  A
N1843     Co1844   2.090       .  S
Co1844     N1847   2.079       .  S
Co1844     N2764   2.078       .  S
Co1844     N2751   2.088       .  S
Co1844    Cl1886   2.467       .  S
C1845      C1892   1.476       .  S
C1845      N1883   1.351       .  A
N1846      N1853   1.318       .  A
N1846      N1876   1.324       .  A
N1846     Co1879   2.087       .  S
N1847      N1865   1.320       .  A
N1847      N1883   1.326       .  A
N1848      C1877   1.351       .  A
N1848      N1858   1.325       .  A
H1849      C1874   1.081       .  S
N1850      N1871   1.322       .  A
N1851      N1869   1.320       .  A
N1851      N1856   1.325       .  A
N1851     Co2744   2.088   1_545  S
C1852      C1880   1.458       .  S
C1852      C1921   1.471       .  S
C1852      N1856   1.350       .  A
N1853      C1868   1.343       .  A
N1853     Co1875   2.086       .  S
C1854      C1857   1.455       .  S
C1854      H1888   1.082       .  S
C1854      N1882   1.337       .  A
C1857      C1901   1.471       .  S
N1858     Co2742   2.091   1_545  S
N1859      C1885   1.339       .  A
N1859      N1861   1.320       .  A
N1859     Co2775   2.077   1_545  S
N1860      C1874   1.342       .  A
N1861      N1889   1.325       .  A
N1861     Co2779   2.090   1_545  S
H1862      C1885   1.082       .  S
H1863      C1880   1.082       .  S
N1864     Co2744   2.078   1_545  S
N1865     Co1879   2.082       .  S
N1866      N1878   1.327       .  A
N1866     Co2775   2.089   1_545  S
C1867      N1871   1.347       .  A
C1868      C1887   1.463       .  S
C1868      H1872   1.082       .  S
N1869      C1880   1.340       .  A
N1869     Co2779   2.080   1_545  S
C1873      C1885   1.461       .  S
C1873      C1912   1.478       .  S
C1873      N1889   1.351       .  A
Co1875     N2759   2.077       .  S
Co1875     N2766   2.089       .  S
Co1875    Cl1886   2.465       .  S
N1876      C1887   1.351       .  A
Co1879     N2761   2.090       .  S
Co1879     N2769   2.080       .  S
Co1879    Cl1886   2.432       .  S
N1882     Co2742   2.075   1_545  S
C1890      C1891   1.407       .  A
C1890      C1895   1.407       .  A
C1890      C2554   1.482       .  S
C1891      C1892   1.403       .  A
C1891      H1896   1.084       .  S
C1892      C1893   1.399       .  A
C1893      C1894   1.397       .  A
C1893      H1897   1.079       .  S
C1894      C1895   1.403       .  A
C1894      C1946   1.476       .  S
C1895      H1898   1.084       .  S
C1899      C1900   1.405       .  A
C1899      C1904   1.409       .  A
C1899      C2513   1.484       .  S
C1900      C1901   1.401       .  A
C1900      H1905   1.084       .  S
C1901      C1902   1.400       .  A
C1902      C1903   1.402       .  A
C1902      H1906   1.085       .  S
C1903      C1904   1.404       .  A
C1903      C1934   1.474       .  S
C1904      H1907   1.084       .  S
C1908      C1909   1.411       .  A
C1908      C1913   1.412       .  A
C1908      C2481   1.508       .  S
C1909      C1910   1.406       .  A
C1909      H1914   1.081       .  S
C1910      C1911   1.403       .  A
C1910      C1941   1.481       .  S
C1911      C1912   1.399       .  A
C1911      H1915   1.082       .  S
C1912      C1913   1.401       .  A
C1913      H1916   1.080       .  S
C1917      C1918   1.404       .  A
C1917      C1922   1.402       .  A
C1917      C2449   1.475       .  S
C1918      C1919   1.402       .  A
C1918      H1923   1.084       .  S
C1919      C1920   1.403       .  A
C1919      C1962   1.470       .  S
C1920      C1921   1.401       .  A
C1920      H1924   1.084       .  S
C1921      C1922   1.402       .  A
C1922      H1925   1.084       .  S
C1926      C1963   1.458       .  S
C1926      N1944   1.351       .  A
N1927      N1944   1.326       .  A
N1927      N1949   1.319       .  A
N1927     Co1964   2.088       .  S
C1928      C1966   1.463       .  S
C1928      H1973   1.082       .  S
C1928      N1953   1.343       .  A
H1929      C1970   1.081       .  S
C1930      C1934   1.454       .  S
C1930      H1959   1.082       .  S
C1930      N1954   1.335       .  A
Co1931     N1949   2.077       .  S
Co1931     N1939   2.089       .  S
Co1931     N1971   2.087       .  S
Co1931     N1947   2.078       .  S
Co1931    Cl1975   2.429       .  S
N1932      C1970   1.342       .  A
N1932      N1939   1.321       .  A
N1932     Co1933   2.080       .  S
Co1933     N1936   2.097       .  S
Co1933     N1953   2.093       .  S
Co1933     N1940   2.085       .  S
Co1933    Cl1975   2.473       .  S
C1934      N1972   1.354       .  A
N1935      N1942   1.320       .  A
N1935      N1965   1.328       .  A
N1935     Co1968   2.100       .  S
N1936      N1954   1.319       .  A
N1936      N1972   1.329       .  A
N1937      C1966   1.347       .  A
N1937      N1947   1.324       .  A
H1938      C1963   1.082       .  S
N1939      N1960   1.322       .  A
N1940      N1958   1.321       .  A
N1940      N1945   1.325       .  A
C1941      C1969   1.463       .  S
C1941      N1945   1.352       .  A
N1942      C1957   1.334       .  A
N1942     Co1964   2.070       .  S
C1943      C1946   1.462       .  S
C1943      H1977   1.081       .  S
C1943      N1971   1.336       .  A
C1946      N1967   1.350       .  A
N1947      N1953   1.320       .  A
N1948      C1974   1.345       .  A
N1948      N1950   1.319       .  A
N1948     Co1964   2.089       .  S
N1949      C1963   1.339       .  A
N1950      N1978   1.321       .  A
N1950     Co1968   2.071       .  S
H1951      C1974   1.081       .  S
H1952      C1969   1.081       .  S
N1954     Co1968   2.070       .  S
N1955      N1967   1.325       .  A
N1955      N1971   1.320       .  A
N1955     Co1964   2.075       .  S
C1956      C1970   1.461       .  S
C1956      N1960   1.350       .  A
C1957      C1976   1.458       .  S
C1957      H1961   1.081       .  S
N1958      C1969   1.340       .  A
N1958     Co1968   2.093       .  S
C1962      C1974   1.464       .  S
C1962      N1978   1.345       .  A
Co1964    Cl1975   2.469       .  S
N1965      C1976   1.354       .  A
Co1968    Cl1975   2.431       .  S
C1979      C1980   1.427       .  A
C1979      C1984   1.409       .  A
C1979      C2609   1.499       .  S
C1980      C1981   1.407       .  A
C1980      C2522   1.490       .  S
C1981      C1982   1.398       .  A
C1981      H2886   1.085       .  S
C1982      C1983   1.408       .  A
C1982      C2385   1.481       .  S
C1983      C1984   1.399       .  A
C1983      C2417   1.483       .  S
C1984      H1985   1.085       .  S
H1986      C2881   1.085   1_545  S
C1987      C1988   1.413       .  A
C1988      C1989   1.399       .  A
C1988      C2545   1.483       .  S
C1989      C1990   1.400   1_554  A
C1989      H1994   1.084       .  S
C1990      C1991   1.410       .  A
C1990      C2330   1.473       .  S
C1992      H1993   1.084   1_455  S
C1995      C1996   1.423       .  A
C1995      C2000   1.404       .  A
C1995      C2682   1.489       .  S
C1996      C1997   1.406       .  A
C1996      C2490   1.494       .  S
C1997      C1998   1.403       .  A
C1997      H2002   1.084       .  S
C1998      C1999   1.411       .  A
C1998      C2266   1.486       .  S
C1999      C2000   1.399       .  A
C1999      C2289   1.481       .  S
C2003      C2004   1.412       .  A
C2003      C2008   1.402       .  A
C2003      C2641   1.485       .  S
C2004      C2005   1.400       .  A
C2004      C3358   1.477       .  S
C2005      C2006   1.401       .  A
C2005      H2910   1.085       .  S
C2006      C2007   1.418       .  A
C2006      C2193   1.488   1_554  S
C2007      C2008   1.404       .  A
C2007      C2225   1.483   1_554  S
C2008      H2009   1.085       .  S
H2010      C2905   1.085   1_545  S
C2011      C2012   1.400       .  A
C2011      C2016   1.403       .  A
C2011      C2234   1.477       .  S
C2012      C2013   1.402       .  A
C2012      H2017   1.084       .  S
C2013      C2014   1.401       .  A
C2013      C2065   1.473       .  S
C2014      C2015   1.403       .  A
C2014      H2018   1.082       .  S
C2015      C2016   1.403       .  A
C2015      C2166   1.473       .  S
C2016      H2019   1.083       .  S
C2020      C2021   1.405       .  A
C2020      C2025   1.405       .  A
C2020      C2353   1.477       .  S
C2021      C2022   1.403       .  A
C2021      H2026   1.084       .  S
C2022      C2023   1.400       .  A
C2022      C2144   1.469       .  S
C2023      C2024   1.398       .  A
C2023      H2027   1.085       .  S
C2024      C2025   1.402       .  A
C2024      C2085   1.469       .  S
C2025      H2028   1.084       .  S
C2029      C2030   1.405       .  A
C2029      C2034   1.403       .  A
C2029      C2202   1.483       .  S
C2030      C2031   1.405       .  A
C2030      H2035   1.084       .  S
C2031      C2032   1.404       .  A
C2031      C2151   1.479       .  S
C2032      C2033   1.403       .  A
C2032      H2036   1.082       .  S
C2033      C2034   1.404       .  A
C2033      C2101   1.477       .  S
C2034      H2037   1.083       .  S
C2038      C2039   1.400       .  A
C2038      C2043   1.403       .  A
C2038      C2321   1.472       .  S
C2039      C2040   1.400       .  A
C2039      H2044   1.084       .  S
C2040      C2041   1.405       .  A
C2040      C2176   1.470       .  S
C2041      C2042   1.405       .  A
C2041      H2045   1.085       .  S
C2042      C2043   1.403       .  A
C2042      C2115   1.473       .  S
C2043      H2046   1.084       .  S
C2047      C2048   1.405       .  A
C2047      C2052   1.404       .  A
C2047      C2257   1.480       .  S
C2048      C2049   1.404       .  A
C2048      H2053   1.084       .  S
C2049      C2050   1.402       .  A
C2049      C2080   1.472       .  S
C2050      C2051   1.401       .  A
C2050      H2054   1.085       .  S
C2051      C2052   1.400       .  A
C2051      C2172   1.468       .  S
C2052      H2055   1.084       .  S
C2056      C2057   1.398       .  A
C2056      C2061   1.397       .  A
C2056      C2394   1.478       .  S
C2057      C2058   1.405       .  A
C2057      H2062   1.082       .  S
C2058      C2059   1.406       .  A
C2058      C2186   1.479       .  S
C2059      C2060   1.407       .  A
C2059      H2063   1.084       .  S
C2060      C2061   1.405       .  A
C2060      C2105   1.477       .  S
C2061      H2064   1.082       .  S
C2065      C2102   1.461       .  S
C2065      N2083   1.348       .  A
N2066      N2083   1.322       .  A
N2066      N2088   1.320       .  A
N2066     Co2103   2.074       .  S
C2067      C2105   1.459       .  S
C2067      H2112   1.081       .  S
C2067      N2092   1.336       .  A
H2068      C2109   1.082       .  S
C2069      C2073   1.461       .  S
C2069      H2098   1.081       .  S
C2069      N2093   1.335       .  A
Co2070     N2088   2.086       .  S
Co2070     N2078   2.083       .  S
Co2070     N2110   2.078       .  S
Co2070     N2086   2.093       .  S
Co2070    Cl2114   2.433       .  S
N2071      C2109   1.345       .  A
N2071      N2078   1.319       .  A
N2071     Co2072   2.089       .  S
Co2072     N2075   2.075       .  S
Co2072     N2092   2.072       .  S
Co2072     N2079   2.091       .  S
Co2072    Cl2114   2.468       .  S
C2073      C2131   1.475       .  S
C2073      N2111   1.350       .  A
N2074      N2081   1.319       .  A
N2074      N2104   1.323       .  A
N2074     Co2107   2.079       .  S
N2075      N2093   1.320       .  A
N2075      N2111   1.325       .  A
N2076      C2105   1.352       .  A
N2076      N2086   1.326       .  A
H2077      C2102   1.081       .  S
N2078      N2099   1.323       .  A
N2079      N2097   1.319       .  A
N2079      N2084   1.327       .  A
C2080      C2108   1.456       .  S
C2080      N2084   1.352       .  A
N2081      C2096   1.344       .  A
N2081     Co2103   2.093       .  S
C2082      C2085   1.456       .  S
C2082      H2116   1.081       .  S
C2082      N2110   1.337       .  A
C2085      N2106   1.350       .  A
N2086      N2092   1.320       .  A
N2087      C2113   1.340       .  A
N2087      N2089   1.319       .  A
N2087     Co2103   2.075       .  S
N2088      C2102   1.339       .  A
N2089      N2117   1.324       .  A
N2089     Co2107   2.091       .  S
H2090      C2113   1.081       .  S
H2091      C2108   1.082       .  S
N2093     Co2107   2.083       .  S
N2094      N2106   1.326       .  A
N2094      N2110   1.320       .  A
N2094     Co2103   2.085       .  S
C2095      C2109   1.462       .  S
C2095      C2120   1.472       .  S
C2095      N2099   1.348       .  A
C2096      C2115   1.464       .  S
C2096      H2100   1.082       .  S
N2097      C2108   1.337       .  A
N2097     Co2107   2.073       .  S
C2101      C2113   1.460       .  S
C2101      N2117   1.352       .  A
Co2103    Cl2114   2.468       .  S
N2104      C2115   1.347       .  A
Co2107    Cl2114   2.430       .  S
C2118      C2119   1.405       .  A
C2118      C2123   1.406       .  A
C2118      C2298   1.480       .  S
C2119      C2120   1.404       .  A
C2119      H2124   1.084       .  S
C2120      C2121   1.402       .  A
C2121      C2122   1.402       .  A
C2121      H2125   1.085       .  S
C2122      C2123   1.405       .  A
C2122      C2136   1.476       .  S
C2123      H2126   1.084       .  S
C2127      C2128   1.402       .  A
C2127      C2132   1.405       .  A
C2127      C2426   1.477       .  S
C2128      C2129   1.400       .  A
C2128      H2133   1.084       .  S
C2129      C2130   1.399       .  A
C2129      C2156   1.471       .  S
C2130      C2131   1.399       .  A
C2130      H2134   1.079       .  S
C2131      C2132   1.404       .  A
C2132      H2135   1.084       .  S
C2136      C2173   1.458       .  S
C2136      N2154   1.352       .  A
N2137      N2154   1.327       .  A
N2137      N2159   1.319       .  A
C2138      C2176   1.463       .  S
C2138      H2183   1.082       .  S
C2138      N2163   1.343       .  A
H2139      C2180   1.081       .  S
C2140      C2144   1.454       .  S
C2140      H2169   1.082       .  S
C2140      N2164   1.335       .  A
Co2141     N2181   2.075       .  S
Co2141     N2157   2.078       .  S
Co2141    Cl2185   2.429       .  S
N2142      C2180   1.340       .  A
N2142      N2149   1.320       .  A
Co2143     N2163   2.088       .  S
Co2143     N3050   2.080       .  S
Co2143    Cl2185   2.469       .  S
C2144      N2182   1.352       .  A
N2145      N2152   1.320       .  A
N2145      N2175   1.327       .  A
N2146      N2164   1.320       .  A
N2146      N2182   1.327       .  A
N2147      C2176   1.347       .  A
N2147      N2157   1.323       .  A
H2148      C2173   1.082       .  S
N2149      N2170   1.322       .  A
N2150      N2168   1.320       .  A
N2150      N2155   1.325       .  A
N2150     Co3043   2.080   1_545  S
C2151      C2179   1.462       .  S
C2151      N2155   1.351       .  A
N2152      C2167   1.335       .  A
C2153      C2156   1.459       .  S
C2153      H2187   1.081       .  S
C2153      N2181   1.335       .  A
C2156      N2177   1.349       .  A
N2157      N2163   1.319       .  A
N2158      C2184   1.343       .  A
N2158      N2160   1.319       .  A
N2158     Co3074   2.085   1_545  S
N2159      C2173   1.339       .  A
N2160      N2188   1.322       .  A
N2160     Co2178   2.073       .  S
H2161      C2184   1.082       .  S
H2162      C2179   1.081       .  S
N2165      N2177   1.324       .  A
N2165      N2181   1.319       .  A
N2165     Co2174   2.072       .  S
C2166      C2180   1.461       .  S
C2166      N2170   1.349       .  A
C2167      C2186   1.458       .  S
C2167      H2171   1.081   1_545  S
N2168      C2179   1.340       .  A
N2168     Co2178   2.090       .  S
C2172      C2184   1.462       .  S
C2172      N2188   1.347       .  A
Co2174     N3058   2.085       .  S
Co2174    Cl2185   2.466       .  S
N2175      C2186   1.354       .  A
Co2178    Cl3085   2.430   1_545  S
Cl2185    Co3078   2.430       .  S
C2189      C2190   1.401   1_565  A
C2189      C3094   1.403       .  A
C2189      H3099   1.085       .  S
C2190      C2191   1.409       .  A
C2190      C2195   1.480       .  S
C2191      C2192   1.403       .  A
C2191      C2196   1.506       .  S
C2192      C3093   1.406   1_545  A
C2192      H2197   1.084       .  S
C2193      C3092   1.406       .  A
C2193      C2194   1.416       .  A
C2194      C3089   1.403       .  A
C2194      C2198   1.507       .  S
C2195      C2200   1.411       .  A
C2195      C2204   1.400       .  A
C2196      H2212   1.110       .  S
C2196      H2213   1.109       .  S
C2196      H2214   1.111       .  S
C2198      H2209   1.110       .  S
C2198      H2210   1.110       .  S
C2198      H2211   1.108       .  S
H2199      C3089   1.085       .  S
C2200      C2201   1.403       .  A
C2200      C3105   1.507       .  S
C2201      C2202   1.404       .  A
C2201      H2206   1.084       .  S
C2202      C2203   1.418       .  A
C2203      C2204   1.404       .  A
C2203      C2207   1.508       .  S
C2204      H2208   1.085       .  S
C2205      C3100   1.507       .  S
C2205      H2215   1.111       .  S
C2205      H2216   1.106       .  S
C2205      H2217   1.109       .  S
C2207      H2218   1.110       .  S
C2207      H2219   1.107       .  S
C2207      H2220   1.111       .  S
C2221      C2222   1.399       .  A
C2221      C2226   1.400       .  A
C2221      H2231   1.085       .  S
C2222      C2223   1.409       .  A
C2222      C2227   1.475       .  S
C2223      C2224   1.402       .  A
C2223      C2228   1.506       .  S
C2224      C2225   1.405       .  A
C2224      H2229   1.084       .  S
C2225      C2226   1.416       .  A
C2226      C3130   1.507       .  S
C2227      C2232   1.410       .  A
C2227      C2236   1.400       .  A
C2228      H2244   1.110       .  S
C2228      H2245   1.109       .  S
C2228      H2246   1.111       .  S
C2230      C3126   1.507       .  S
C2230      H2241   1.110   1_565  S
C2230      H2242   1.110   1_565  S
C2230      H2243   1.108   1_565  S
C2232      C2233   1.401       .  A
C2232      C2237   1.507       .  S
C2233      C2234   1.404       .  A
C2233      H2238   1.085       .  S
C2234      C2235   1.417       .  A
C2235      C2236   1.401       .  A
C2235      C2239   1.508       .  S
C2236      H2240   1.085       .  S
C2237      H2247   1.111       .  S
C2237      H2248   1.106       .  S
C2237      H2249   1.109       .  S
C2239      H2250   1.110       .  S
C2239      H2251   1.107       .  S
C2239      H2252   1.111       .  S
C2253      C2254   1.403       .  A
C2253      C2258   1.404       .  A
C2253      H2263   1.085       .  S
C2254      C2255   1.409       .  A
C2254      C2259   1.480       .  S
C2255      C2256   1.401       .  A
C2255      C2260   1.507       .  S
C2256      C2257   1.406       .  A
C2256      H2261   1.085       .  S
C2257      C2258   1.414       .  A
C2258      C2262   1.507       .  S
C2259      C2264   1.410       .  A
C2259      C2268   1.401       .  A
C2260      H2276   1.110       .  S
C2260      H2277   1.110       .  S
C2260      H2278   1.111       .  S
C2262      H2273   1.110       .  S
C2262      H2274   1.111       .  S
C2262      H2275   1.108       .  S
C2264      C2265   1.402       .  A
C2264      C2269   1.506       .  S
C2265      C2266   1.405       .  A
C2265      H2270   1.083       .  S
C2266      C2267   1.417       .  A
C2267      C2268   1.403       .  A
C2267      C2271   1.507       .  S
C2268      H2272   1.084       .  S
C2269      H2279   1.111       .  S
C2269      H2280   1.110       .  S
C2269      H2281   1.110       .  S
C2271      H2282   1.110       .  S
C2271      H2283   1.107       .  S
C2285      C2286   1.401       .  A
C2285      C2290   1.402       .  A
C2285      H2295   1.085       .  S
C2286      C2287   1.412   1_655  A
C2286      C2291   1.482       .  S
C2287      C2288   1.405       .  A
C2287      C2292   1.506       .  S
C2290      C2294   1.508       .  S
C2291      C2296   1.413       .  A
C2291      C2300   1.399       .  A
C2292      H2308   1.110       .  S
C2292      H2309   1.110       .  S
C2292      H2310   1.111       .  S
C2294      H2305   1.110       .  S
C2296      C2297   1.408       .  A
C2296      C2301   1.506       .  S
C2297      C2298   1.403       .  A
C2297      H2302   1.084       .  S
C2298      C2299   1.417       .  A
C2299      C2300   1.401       .  A
C2299      C2303   1.509       .  S
C2301      H2311   1.111       .  S
C2301      H2312   1.110       .  S
C2301      H2313   1.110       .  S
C2303      H2315   1.108       .  S
C2317      C2318   1.399       .  A
C2317      C2322   1.399       .  A
C2317      H2327   1.085       .  S
C2318      C2319   1.411       .  A
C2318      C2323   1.475       .  S
C2319      C2320   1.404       .  A
C2319      C2324   1.506       .  S
C2320      C2321   1.401       .  A
C2320      H2325   1.084       .  S
C2321      C2322   1.416       .  A
C2322      C2326   1.509       .  S
C2323      C2328   1.410       .  A
C2323      C2332   1.400       .  A
C2324      H2340   1.110       .  S
C2324      H2341   1.110       .  S
C2324      H2342   1.111       .  S
C2326      H2337   1.111       .  S
C2326      H2338   1.110       .  S
C2326      H2339   1.108       .  S
C2328      C2329   1.402       .  A
C2328      C2333   1.506       .  S
C2329      C2330   1.402       .  A
C2329      H2334   1.084       .  S
C2330      C2331   1.413       .  A
C2331      C2332   1.400       .  A
C2331      C2335   1.508       .  S
C2332      H2336   1.084       .  S
C2333      H2343   1.111       .  S
C2333      H2344   1.110       .  S
C2333      H2345   1.110       .  S
C2335      H2346   1.110       .  S
C2335      H2347   1.108       .  S
C2335      H2348   1.110       .  S
C2349      C2350   1.399       .  A
C2349      C2354   1.401       .  A
C2349      H2359   1.085       .  S
C2350      C2351   1.412       .  A
C2350      C2355   1.481       .  S
C2351      C2352   1.406       .  A
C2351      C2356   1.506       .  S
C2352      C2353   1.402       .  A
C2352      H2357   1.084       .  S
C2353      C2354   1.417       .  A
C2354      C2358   1.509       .  S
C2355      C2360   1.411   1_655  A
C2355      C2364   1.402       .  A
C2356      H2372   1.110       .  S
C2356      H2373   1.110       .  S
C2356      H2374   1.111       .  S
C2358      H2369   1.110       .  S
C2358      H2370   1.110       .  S
C2358      H2371   1.108       .  S
C2361      H2366   1.084       .  S
C2362      C2363   1.414       .  A
C2363      C2364   1.403       .  A
C2363      C2367   1.507       .  S
C2364      H2368   1.084       .  S
C2365      H2375   1.111       .  S
C2365      H2376   1.110       .  S
C2365      H2377   1.110       .  S
C2367      H2378   1.111       .  S
C2367      H2379   1.108       .  S
C2367      H2380   1.110       .  S
C2381      C2382   1.401   1_565  A
C2381      C3286   1.401       .  A
C2381      H2391   1.085       .  S
C2382      C2383   1.410       .  A
C2382      C2387   1.477       .  S
C2383      C2384   1.403       .  A
C2383      C2388   1.506       .  S
C2384      C3285   1.403   1_545  A
C2384      H3289   1.084       .  S
C2385      C3284   1.403       .  A
C2385      C2386   1.414       .  A
C2386      C3281   1.401       .  A
C2386      C2390   1.506       .  S
C2387      C2392   1.410       .  A
C2387      C2396   1.400       .  A
C2388      H2404   1.110       .  S
C2388      H2405   1.109       .  S
C2388      H2406   1.111       .  S
H2389      C3284   1.084       .  S
C2390      H2401   1.110       .  S
C2390      H3302   1.110       .  S
C2390      H2403   1.108       .  S
C2392      C2393   1.403       .  A
C2392      C3297   1.506       .  S
C2393      C2394   1.404       .  A
C2393      H2398   1.084       .  S
C2394      C2395   1.416       .  A
C2395      C2396   1.402       .  A
C2395      C2399   1.508       .  S
C2396      H2400   1.085       .  S
C2397      C3292   1.506       .  S
C2397      H2407   1.111       .  S
C2397      H2408   1.110       .  S
C2397      H2409   1.109       .  S
C2399      H2410   1.110       .  S
C2399      H2411   1.107       .  S
C2399      H2412   1.111       .  S
H2402      C3290   1.110       .  S
C2413      C2414   1.399       .  A
C2413      C2418   1.400       .  A
C2413      H2423   1.086       .  S
C2414      C2415   1.410       .  A
C2414      C2419   1.476       .  S
C2415      C2416   1.403       .  A
C2415      C2420   1.507       .  S
C2416      C2417   1.405       .  A
C2416      H2421   1.085       .  S
C2417      C2418   1.417       .  A
C2418      C2422   1.509       .  S
C2419      C2424   1.409       .  A
C2419      C2428   1.402       .  A
C2420      H2436   1.109       .  S
C2420      H2437   1.109       .  S
C2420      H2438   1.111       .  S
C2422      H2433   1.110       .  S
C2422      H2434   1.110       .  S
C2422      H2435   1.106       .  S
C2424      C2425   1.401       .  A
C2424      C2429   1.506       .  S
C2425      C2426   1.404       .  A
C2425      H2430   1.084       .  S
C2426      C2427   1.415       .  A
C2427      C2428   1.402       .  A
C2427      C2431   1.508       .  S
C2428      H2432   1.084       .  S
C2429      H2439   1.111       .  S
C2429      H2440   1.110       .  S
C2429      H2441   1.109       .  S
C2431      H2442   1.110       .  S
C2431      H2443   1.107       .  S
C2431      H2444   1.111       .  S
C2445      C2446   1.398       .  A
C2445      C2450   1.399       .  A
C2445      H3355   1.085       .  S
C2446      C2447   1.412       .  A
C2446      C2451   1.477       .  S
C2447      C2448   1.406       .  A
C2447      C2452   1.505       .  S
C2448      C2449   1.403       .  A
C2448      H2453   1.084       .  S
C2449      C2450   1.416       .  A
C2450      C2454   1.509       .  S
C2451      C2456   1.410       .  A
C2451      C2460   1.401   1_545  A
C2452      H2468   1.110       .  S
C2452      H2469   1.110       .  S
C2452      H2470   1.111       .  S
C2454      H2465   1.110       .  S
C2454      H3366   1.111       .  S
C2454      H2467   1.107       .  S
H2455      C3345   1.085       .  S
C2456      C2457   1.402       .  A
C2456      C2461   1.506       .  S
C2457      C2458   1.402   1_545  A
C2457      H2462   1.084       .  S
C2458      C2459   1.413       .  A
C2458      C2904   1.477       .  S
C2459      C2460   1.402       .  A
C2459      C3363   1.506       .  S
C2460      H2464   1.084       .  S
C2461      H2471   1.111       .  S
C2461      H2472   1.110       .  S
C2461      H2473   1.110       .  S
C2463      C3359   1.506       .  S
C2463      H2474   1.110       .  S
C2463      H2475   1.107       .  S
C2463      H3376   1.110       .  S
H2466      C3354   1.111       .  S
H2476      C3363   1.110       .  S
C2477      C2478   1.406       .  A
C2477      C2482   1.405       .  A
C2477      H2487   1.084       .  S
C2478      C2479   1.418       .  A
C2478      C2483   1.501       .  S
C2479      C2480   1.401       .  A
C2479      C2484   1.510       .  S
C2480      C2481   1.410       .  A
C2480      H2485   1.082       .  S
C2481      C2482   1.424       .  A
C2482      C2486   1.509       .  S
C2483      C2488   1.422       .  A
C2483      C2492   1.406       .  A
C2484      H2500   1.110       .  S
C2484      H2501   1.107       .  S
C2484      H2502   1.111       .  S
C2486      H2497   1.111       .  S
C2486      H2498   1.110       .  S
C2486      H2499   1.107       .  S
C2488      C2489   1.405       .  A
C2488      C2493   1.508       .  S
C2489      C2490   1.405       .  A
C2489      H2494   1.084       .  S
C2490      C2491   1.414       .  A
C2491      C2492   1.398       .  A
C2491      C2495   1.506       .  S
C2492      H2496   1.083       .  S
C2493      H2503   1.111       .  S
C2493      H2504   1.110       .  S
C2493      H2505   1.107       .  S
C2495      H2506   1.109       .  S
C2495      H2507   1.108       .  S
C2495      H2508   1.111       .  S
C2509      C2510   1.399       .  A
C2509      C2514   1.402       .  A
C2509      H2519   1.085       .  S
C2510      C2511   1.411       .  A
C2510      C2515   1.481       .  S
C2511      C2512   1.406       .  A
C2511      C2516   1.506       .  S
C2512      C2513   1.405       .  A
C2512      H2517   1.084       .  S
C2513      C2514   1.420       .  A
C2514      C2518   1.509       .  S
C2515      C2520   1.408       .  A
C2515      C3424   1.404   1_545  A
C2516      H2532   1.110       .  S
C2516      H2533   1.109       .  S
C2516      H2534   1.111       .  S
C2518      H2529   1.110       .  S
C2518      H2530   1.111       .  S
C2518      H2531   1.106       .  S
C2520      C2521   1.400       .  A
C2520      C2525   1.507       .  S
C2521      C3422   1.407   1_545  A
C2521      H2526   1.084       .  S
C2522      C3421   1.407       .  A
C2522      C2523   1.417       .  A
C2523      C2524   1.407       .  A
C2523      C2527   1.506       .  S
C2524      C3415   1.404       .  A
C2524      H2528   1.084       .  S
C2525      H2535   1.111       .  S
C2525      H2536   1.110       .  S
C2525      H2537   1.109       .  S
C2527      H2538   1.111       .  S
C2527      H2539   1.108       .  S
C2527      H2540   1.110       .  S
C2541      C2542   1.401       .  A
C2541      C2546   1.402       .  A
C2541      H2551   1.084       .  S
C2542      C2543   1.410       .  A
C2542      C2547   1.478       .  S
C2543      C2544   1.401       .  A
C2543      C2548   1.507       .  S
C2544      C2545   1.404       .  A
C2544      H2549   1.084       .  S
C2545      C2546   1.416       .  A
C2546      C2550   1.508       .  S
C2547      C2552   1.410       .  A
C2547      C2556   1.400       .  A
C2548      H2564   1.110       .  S
C2548      H2565   1.110       .  S
C2548      H2566   1.111       .  S
C2550      H2561   1.110       .  S
C2550      H2562   1.110       .  S
C2550      H2563   1.106       .  S
C2552      C2553   1.402       .  A
C2552      C2557   1.507       .  S
C2553      C2554   1.404       .  A
C2553      H2558   1.085       .  S
C2554      C2555   1.418       .  A
C2555      C2556   1.403       .  A
C2555      C2559   1.508       .  S
C2556      H2560   1.085       .  S
C2557      H2567   1.111       .  S
C2557      H2568   1.110       .  S
C2557      H2569   1.107       .  S
C2559      H2570   1.111       .  S
C2559      H2571   1.107       .  S
C2559      H2572   1.110       .  S
C2573      C2574   1.401       .  A
C2573      C2578   1.400       .  A
C2573      H2583   1.084       .  S
C2574      C2579   1.479       .  S
C2575      C2576   1.402       .  A
C2575      C2580   1.507       .  S
C2576      H2581   1.084       .  S
C2577      C2578   1.414   1_455  A
C2578      C2582   1.508       .  S
C2579      C2584   1.411       .  A
C2579      C2588   1.400       .  A
C2580      H2596   1.109       .  S
C2580      H2597   1.110       .  S
C2580      H2598   1.111       .  S
C2582      H2593   1.111       .  S
C2582      H2594   1.110       .  S
C2582      H2595   1.107       .  S
C2584      C2585   1.402       .  A
C2584      C2589   1.507       .  S
C2585      C2586   1.405       .  A
C2585      H2590   1.084       .  S
C2586      C2587   1.417       .  A
C2587      C2588   1.401       .  A
C2587      C2591   1.508       .  S
C2588      H2592   1.085       .  S
C2589      H2599   1.111       .  S
C2589      H2600   1.109       .  S
C2591      H2602   1.111       .  S
C2591      H2603   1.107       .  S
C2591      H2604   1.110       .  S
C2605      C2606   1.410       .  A
C2605      C2610   1.404       .  A
C2605      H2615   1.083       .  S
C2606      C2607   1.419       .  A
C2606      C2611   1.503       .  S
C2607      C2608   1.403       .  A
C2607      C2612   1.509       .  S
C2608      C2609   1.409       .  A
C2608      H2613   1.085       .  S
C2609      C2610   1.415       .  A
C2610      C2614   1.505       .  S
C2611      C2616   1.417       .  A
C2611      C2620   1.406       .  A
C2612      H2628   1.110       .  S
C2612      H2629   1.107       .  S
C2612      H2630   1.111       .  S
C2614      H2625   1.111       .  S
C2614      H2626   1.110       .  S
C2614      H2627   1.107       .  S
C2616      C2617   1.403       .  A
C2616      C2621   1.509       .  S
C2617      C2618   1.413       .  A
C2617      H2622   1.080       .  S
C2618      C2619   1.423       .  A
C2619      C2620   1.405       .  A
C2619      C2623   1.508       .  S
C2620      H2624   1.083       .  S
C2621      H2631   1.111       .  S
C2621      H2632   1.110       .  S
C2621      H2633   1.108       .  S
C2623      H2634   1.110       .  S
C2623      H2635   1.108       .  S
C2623      H2636   1.111       .  S
C2637      C2638   1.401       .  A
C2637      C2642   1.404       .  A
C2637      H2647   1.084       .  S
C2638      C2639   1.411       .  A
C2638      C2643   1.483       .  S
C2639      C2640   1.405       .  A
C2639      C2644   1.506       .  S
C2640      C2641   1.404       .  A
C2640      H2645   1.084       .  S
C2641      C2642   1.417       .  A
C2642      C2646   1.508       .  S
C2643      C2648   1.410       .  A
C2643      C2652   1.404       .  A
C2644      H2660   1.110       .  S
C2644      H2661   1.110       .  S
C2644      H2662   1.111       .  S
C2646      H2657   1.110       .  S
C2646      H2658   1.110       .  S
C2646      H2659   1.107       .  S
C2648      C2649   1.402       .  A
C2648      C2653   1.508       .  S
C2649      C2650   1.405       .  A
C2649      H2654   1.085       .  S
C2650      C2651   1.415       .  A
C2651      C2652   1.407       .  A
C2651      C2655   1.507       .  S
C2652      H2656   1.085       .  S
C2653      H2663   1.111       .  S
C2653      H2664   1.110       .  S
C2653      H2665   1.110       .  S
C2655      H2666   1.111       .  S
C2655      H2667   1.108       .  S
C2655      H2668   1.110       .  S
C2669      C2670   1.402       .  A
C2669      C2674   1.405       .  A
C2669      H2679   1.085       .  S
C2670      C2671   1.409       .  A
C2670      C2675   1.479       .  S
C2671      C2672   1.402       .  A
C2671      C2676   1.507       .  S
C2672      C2673   1.407       .  A
C2672      H2677   1.084       .  S
C2673      C2674   1.416       .  A
C2674      C2678   1.507       .  S
C2675      C2680   1.410       .  A
C2676      H2693   1.109       .  S
C2676      H2694   1.111       .  S
C2678      H2689   1.108       .  S
C2678      H2690   1.111       .  S
C2678      H2691   1.110       .  S
C2680      C2681   1.401       .  A
C2680      C2685   1.508       .  S
C2681      H2686   1.085       .  S
C2682      C2683   1.417       .  A
C2683      C2684   1.404       .  A
C2683      C2687   1.507       .  S
C2684      H2688   1.085       .  S
C2685      H2695   1.111       .  S
C2685      H2696   1.110       .  S
C2685      H2697   1.109       .  S
C2687      H2698   1.111       .  S
C2687      H2699   1.108       .  S
C2687      H2700   1.110       .  S
C2701      C2702   1.401       .  A
C2701      C2706   1.406       .  A
C2701      C3573   1.485       .  S
C2702      C2703   1.402       .  A
C2702      H2707   1.084       .  S
C2703      C2704   1.398       .  A
C2703      C2737   1.473       .  S
C2704      C2705   1.404       .  A
C2704      H2708   1.083       .  S
C2705      C2706   1.407       .  A
C2705      C2856   1.476       .  S
C2706      H2709   1.082       .  S
C2710      C2711   1.407       .  A
C2710      C2715   1.405       .  A
C2710      C3550   1.483       .  S
C2711      C2712   1.405       .  A
C2711      H2716   1.084       .  S
C2712      C2713   1.402       .  A
C2712      C2767   1.472       .  S
C2713      C2714   1.401       .  A
C2713      H2717   1.085       .  S
C2714      C2715   1.402       .  A
C2714      C2826   1.473       .  S
C2715      H2718   1.084       .  S
C2719      C2720   1.414       .  A
C2719      C2724   1.417       .  A
C2719      C3518   1.514       .  S
C2720      C2721   1.401       .  A
C2720      H2725   1.080       .  S
C2721      C2722   1.398       .  A
C2721      C2866   1.474       .  S
C2722      C2723   1.401       .  A
C2722      H2726   1.085       .  S
C2723      C2724   1.406       .  A
C2723      C2787   1.478       .  S
C2724      H2727   1.080       .  S
C2728      C2729   1.399       .  A
C2728      C2733   1.398       .  A
C2728      C3486   1.481       .  S
C2729      C2730   1.405       .  A
C2729      H2734   1.082       .  S
C2730      C2731   1.408       .  A
C2730      C2777   1.477       .  S
C2731      C2732   1.405       .  A
C2731      H2735   1.084       .  S
C2732      C2733   1.404       .  A
C2732      C2876   1.479       .  S
C2733      H2736   1.082       .  S
C2737      C2774   1.465       .  S
N2738      N2755   1.320       .  A
N2738     Co2775   2.068       .  S
C2739      H2784   1.081       .  S
C2739      N2764   1.338       .  A
H2740      C2781   1.081       .  S
C2741      C2745   1.460       .  S
C2741      H2770   1.081       .  S
C2741      N2765   1.334       .  A
Co2742     N2760   2.091       .  S
Co2742     N2750   2.078       .  S
N2743      C2781   1.346       .  A
N2743     Co2744   2.090       .  S
Co2744     N2747   2.079       .  S
Co2744    Cl2786   2.467       .  S
C2745      C2792   1.476       .  S
C2745      N2783   1.351       .  A
N2746      N2753   1.318       .  A
N2746      N2776   1.324       .  A
N2746     Co2779   2.087       .  S
N2747      N2765   1.320       .  A
N2747      N2783   1.326       .  A
N2748      C2777   1.351       .  A
N2748      N2758   1.325       .  A
H2749      C2774   1.081       .  S
N2750      N2771   1.322       .  A
N2751      N2769   1.320       .  A
N2751      N2756   1.325       .  A
C2752      C2780   1.458       .  S
C2752      C2821   1.471       .  S
C2752      N2756   1.350       .  A
N2753      C2768   1.343       .  A
N2753     Co2775   2.086       .  S
C2754      C2757   1.455       .  S
C2754      H2788   1.082       .  S
C2754      N2782   1.337       .  A
C2757      C2801   1.471       .  S
N2759      C2785   1.339       .  A
N2759      N2761   1.320       .  A
N2760      C2774   1.342       .  A
N2761      N2789   1.325       .  A
H2762      C2785   1.082       .  S
H2763      C2780   1.082       .  S
N2765     Co2779   2.082       .  S
N2766      N2778   1.327       .  A
C2767      N2771   1.347       .  A
C2768      C2787   1.463       .  S
C2768      H2772   1.082       .  S
N2769      C2780   1.340       .  A
C2773      C2785   1.461       .  S
C2773      C2812   1.478       .  S
C2773      N2789   1.351       .  A
Co2775    Cl2786   2.465       .  S
N2776      C2787   1.351       .  A
Co2779    Cl2786   2.432       .  S
C2790      C2791   1.407       .  A
C2790      C2795   1.407       .  A
C2790      C3454   1.482       .  S
C2791      C2792   1.403       .  A
C2791      H2796   1.084       .  S
C2792      C2793   1.399       .  A
C2793      C2794   1.397       .  A
C2793      H2797   1.079       .  S
C2794      C2795   1.403       .  A
C2794      C2846   1.476       .  S
C2795      H2798   1.084       .  S
C2799      C2800   1.405       .  A
C2799      C2804   1.409       .  A
C2799      C3413   1.484       .  S
C2800      C2801   1.401       .  A
C2800      H2805   1.084       .  S
C2801      C2802   1.400       .  A
C2802      C2803   1.402       .  A
C2802      H2806   1.085       .  S
C2803      C2804   1.404       .  A
C2803      C2834   1.474       .  S
C2804      H2807   1.084       .  S
C2808      C2809   1.411       .  A
C2808      C2813   1.412       .  A
C2808      C3381   1.508       .  S
C2809      C2810   1.406       .  A
C2809      H2814   1.081       .  S
C2810      C2811   1.403       .  A
C2810      C2841   1.481       .  S
C2811      C2812   1.399       .  A
C2811      H2815   1.082       .  S
C2812      C2813   1.401       .  A
C2813      H2816   1.080       .  S
C2817      C2818   1.404       .  A
C2817      C2822   1.402       .  A
C2817      C3349   1.475       .  S
C2818      C2819   1.402       .  A
C2818      H2823   1.084       .  S
C2819      C2820   1.403       .  A
C2819      C2862   1.470       .  S
C2820      C2821   1.401       .  A
C2820      H2824   1.084       .  S
C2821      C2822   1.402       .  A
C2822      H2825   1.084       .  S
C2826      C2863   1.458       .  S
C2826      N2844   1.351       .  A
N2827      N2844   1.326       .  A
N2827      N2849   1.319       .  A
N2827     Co2864   2.088       .  S
C2828      C2866   1.463       .  S
C2828      H2873   1.082       .  S
C2828      N2853   1.343       .  A
H2829      C2870   1.081       .  S
C2830      C2834   1.454       .  S
C2830      H2859   1.082       .  S
C2830      N2854   1.335       .  A
Co2831     N2849   2.077       .  S
Co2831     N2839   2.089       .  S
Co2831     N2871   2.087       .  S
Co2831     N2847   2.078       .  S
Co2831    Cl2875   2.429       .  S
N2832      C2870   1.342       .  A
N2832      N2839   1.321       .  A
N2832     Co2833   2.080       .  S
Co2833     N2836   2.097       .  S
Co2833     N2853   2.093       .  S
Co2833     N2840   2.085       .  S
Co2833    Cl2875   2.473       .  S
C2834      N2872   1.354       .  A
N2835      N2842   1.320       .  A
N2835      N2865   1.328       .  A
N2835     Co2868   2.100       .  S
N2836      N2854   1.319       .  A
N2836      N2872   1.329       .  A
N2837      C2866   1.347       .  A
N2837      N2847   1.324       .  A
H2838      C2863   1.082       .  S
N2839      N2860   1.322       .  A
N2840      N2858   1.321       .  A
N2840      N2845   1.325       .  A
C2841      C2869   1.463       .  S
C2841      N2845   1.352       .  A
N2842      C2857   1.334       .  A
N2842     Co2864   2.070       .  S
C2843      C2846   1.462       .  S
C2843      H2877   1.081       .  S
C2843      N2871   1.336       .  A
C2846      N2867   1.350       .  A
N2847      N2853   1.320       .  A
N2848      C2874   1.345       .  A
N2848      N2850   1.319       .  A
N2848     Co2864   2.089       .  S
N2849      C2863   1.339       .  A
N2850      N2878   1.321       .  A
N2850     Co2868   2.071       .  S
H2851      C2874   1.081       .  S
H2852      C2869   1.081       .  S
N2854     Co2868   2.070       .  S
N2855      N2867   1.325       .  A
N2855      N2871   1.320       .  A
N2855     Co2864   2.075       .  S
C2856      C2870   1.461       .  S
C2856      N2860   1.350       .  A
C2857      C2876   1.458       .  S
C2857      H2861   1.081       .  S
N2858      C2869   1.340       .  A
N2858     Co2868   2.093       .  S
C2862      C2874   1.464       .  S
C2862      N2878   1.345       .  A
Co2864    Cl2875   2.469       .  S
N2865      C2876   1.354       .  A
Co2868    Cl2875   2.431       .  S
C2879      C2880   1.427       .  A
C2879      C2884   1.409       .  A
C2879      C3509   1.499       .  S
C2880      C2881   1.407       .  A
C2880      C3422   1.490       .  S
C2881      C2882   1.398       .  A
C2882      C2883   1.408       .  A
C2882      C3285   1.481       .  S
C2883      C2884   1.399       .  A
C2883      C3317   1.483       .  S
C2884      H2885   1.085       .  S
C2887      C2888   1.413       .  A
C2888      C2889   1.399       .  A
C2888      C3445   1.483       .  S
C2889      C2890   1.400   1_554  A
C2889      H2894   1.084       .  S
C2890      C2891   1.410       .  A
C2890      C3230   1.473       .  S
C2892      H2893   1.084   1_455  S
C2895      C2896   1.423       .  A
C2895      C2900   1.404       .  A
C2895      C3582   1.489       .  S
C2896      C2897   1.406       .  A
C2896      C3390   1.494       .  S
C2897      C2898   1.403       .  A
C2897      H2902   1.084       .  S
C2898      C2899   1.411       .  A
C2898      C3166   1.486       .  S
C2899      C2900   1.399       .  A
C2899      C3189   1.481       .  S
C2903      C2904   1.412       .  A
C2903      C2908   1.402       .  A
C2903      C3541   1.485       .  S
C2904      C2905   1.400       .  A
C2905      C2906   1.401       .  A
C2906      C2907   1.418       .  A
C2906      C3093   1.488   1_554  S
C2907      C2908   1.404       .  A
C2907      C3125   1.483   1_554  S
C2908      H2909   1.085       .  S
C2911      C2912   1.400       .  A
C2911      C2916   1.403       .  A
C2911      C3134   1.477       .  S
C2912      C2913   1.402       .  A
C2912      H2917   1.084       .  S
C2913      C2914   1.401       .  A
C2913      C2965   1.473       .  S
C2914      C2915   1.403       .  A
C2914      H2918   1.082       .  S
C2915      C2916   1.403       .  A
C2915      C3066   1.473       .  S
C2916      H2919   1.083       .  S
C2920      C2921   1.405       .  A
C2920      C2925   1.405       .  A
C2920      C3253   1.477       .  S
C2921      C2922   1.403       .  A
C2921      H2926   1.084       .  S
C2922      C2923   1.400       .  A
C2922      C3044   1.469       .  S
C2923      C2924   1.398       .  A
C2923      H2927   1.085       .  S
C2924      C2925   1.402       .  A
C2924      C2985   1.469       .  S
C2925      H2928   1.084       .  S
C2929      C2930   1.405       .  A
C2929      C2934   1.403       .  A
C2929      C3102   1.483       .  S
C2930      C2931   1.405       .  A
C2930      H2935   1.084       .  S
C2931      C2932   1.404       .  A
C2931      C3051   1.479       .  S
C2932      C2933   1.403       .  A
C2932      H2936   1.082       .  S
C2933      C2934   1.404       .  A
C2933      C3001   1.477       .  S
C2934      H2937   1.083       .  S
C2938      C2939   1.400       .  A
C2938      C2943   1.403       .  A
C2938      C3221   1.472       .  S
C2939      C2940   1.400       .  A
C2939      H2944   1.084       .  S
C2940      C2941   1.405       .  A
C2940      C3076   1.470       .  S
C2941      C2942   1.405       .  A
C2941      H2945   1.085       .  S
C2942      C2943   1.403       .  A
C2942      C3015   1.473       .  S
C2943      H2946   1.084       .  S
C2947      C2948   1.405       .  A
C2947      C2952   1.404       .  A
C2947      C3157   1.480       .  S
C2948      C2949   1.404       .  A
C2948      H2953   1.084       .  S
C2949      C2950   1.402       .  A
C2949      C2980   1.472       .  S
C2950      C2951   1.401       .  A
C2950      H2954   1.084       .  S
C2951      C2952   1.400       .  A
C2951      C3072   1.468       .  S
C2952      H2955   1.084       .  S
C2956      C2957   1.398       .  A
C2956      C2961   1.397       .  A
C2956      C3294   1.478       .  S
C2957      C2958   1.405       .  A
C2957      H2962   1.082       .  S
C2958      C2959   1.406       .  A
C2958      C3086   1.479       .  S
C2959      C2960   1.407       .  A
C2959      H2963   1.084       .  S
C2960      C2961   1.405       .  A
C2960      C3005   1.476       .  S
C2961      H2964   1.082       .  S
C2965      C3002   1.461       .  S
C2965      N2983   1.348       .  A
N2966      N2983   1.322       .  A
N2966      N2988   1.320       .  A
N2966     Co3003   2.074       .  S
C2967      C3005   1.459       .  S
C2967      H3012   1.081       .  S
C2967      N2992   1.336       .  A
H2968      C3009   1.082       .  S
C2969      C2973   1.461       .  S
C2969      H2998   1.081       .  S
C2969      N2993   1.335       .  A
Co2970     N2988   2.086       .  S
Co2970     N2978   2.083       .  S
Co2970     N3010   2.078       .  S
Co2970     N2986   2.093       .  S
Co2970    Cl3014   2.433       .  S
N2971      C3009   1.345       .  A
N2971      N2978   1.319       .  A
N2971     Co2972   2.089       .  S
Co2972     N2975   2.075       .  S
Co2972     N2992   2.071       .  S
Co2972     N2979   2.091       .  S
Co2972    Cl3014   2.468       .  S
C2973      C3031   1.475       .  S
C2973      N3011   1.350       .  A
N2974      N2981   1.319       .  A
N2974      N3004   1.323       .  A
N2974     Co3007   2.079       .  S
N2975      N2993   1.320       .  A
N2975      N3011   1.325       .  A
N2976      C3005   1.352       .  A
N2976      N2986   1.326       .  A
H2977      C3002   1.081       .  S
N2978      N2999   1.323       .  A
N2979      N2997   1.319       .  A
N2979      N2984   1.327       .  A
C2980      C3008   1.456       .  S
C2980      N2984   1.352       .  A
N2981      C2996   1.344       .  A
N2981     Co3003   2.093       .  S
C2982      C2985   1.456       .  S
C2982      H3016   1.081       .  S
C2982      N3010   1.337       .  A
C2985      N3006   1.350       .  A
N2986      N2992   1.320       .  A
N2987      C3013   1.340       .  A
N2987      N2989   1.319       .  A
N2987     Co3003   2.075       .  S
N2988      C3002   1.339       .  A
N2989      N3017   1.324       .  A
N2989     Co3007   2.091       .  S
H2990      C3013   1.081       .  S
H2991      C3008   1.082       .  S
N2993     Co3007   2.083       .  S
N2994      N3006   1.326       .  A
N2994      N3010   1.320       .  A
N2994     Co3003   2.085       .  S
C2995      C3009   1.463       .  S
C2995      C3020   1.472       .  S
C2995      N2999   1.348       .  A
C2996      C3015   1.464       .  S
C2996      H3000   1.082       .  S
N2997      C3008   1.337       .  A
N2997     Co3007   2.073       .  S
C3001      C3013   1.460       .  S
C3001      N3017   1.352       .  A
Co3003    Cl3014   2.468       .  S
N3004      C3015   1.347       .  A
Co3007    Cl3014   2.430       .  S
C3018      C3019   1.405       .  A
C3018      C3023   1.406       .  A
C3018      C3198   1.480       .  S
C3019      C3020   1.404       .  A
C3019      H3024   1.084       .  S
C3020      C3021   1.402       .  A
C3021      C3022   1.402       .  A
C3021      H3025   1.085       .  S
C3022      C3023   1.405       .  A
C3022      C3036   1.476       .  S
C3023      H3026   1.084       .  S
C3027      C3028   1.402       .  A
C3027      C3032   1.405       .  A
C3027      C3326   1.477       .  S
C3028      C3029   1.400       .  A
C3028      H3033   1.084       .  S
C3029      C3030   1.399       .  A
C3029      C3056   1.471       .  S
C3030      C3031   1.399       .  A
C3030      H3034   1.079       .  S
C3031      C3032   1.404       .  A
C3032      H3035   1.084       .  S
C3036      C3073   1.458       .  S
C3036      N3054   1.352       .  A
N3037      N3054   1.327       .  A
N3037      N3059   1.319       .  A
C3038      C3076   1.463       .  S
C3038      H3083   1.082       .  S
C3038      N3063   1.343       .  A
H3039      C3080   1.081       .  S
C3040      C3044   1.454       .  S
C3040      H3069   1.082       .  S
C3040      N3064   1.335       .  A
Co3041     N3081   2.075       .  S
Co3041     N3057   2.078       .  S
Co3041    Cl3085   2.429       .  S
N3042      C3080   1.340       .  A
N3042      N3049   1.320       .  A
Co3043     N3063   2.088       .  S
Co3043    Cl3085   2.469       .  S
C3044      N3082   1.352       .  A
N3045      N3052   1.320       .  A
N3045      N3075   1.327       .  A
N3046      N3064   1.320       .  A
N3046      N3082   1.327       .  A
N3047      C3076   1.347       .  A
N3047      N3057   1.323       .  A
H3048      C3073   1.082       .  S
N3049      N3070   1.322       .  A
N3050      N3068   1.320       .  A
N3050      N3055   1.325       .  A
C3051      C3079   1.462       .  S
C3051      N3055   1.351       .  A
N3052      C3067   1.335       .  A
C3053      C3056   1.459       .  S
C3053      H3087   1.081       .  S
C3053      N3081   1.335       .  A
C3056      N3077   1.349       .  A
N3057      N3063   1.319       .  A
N3058      C3084   1.343       .  A
N3058      N3060   1.319       .  A
N3059      C3073   1.339       .  A
N3060      N3088   1.322       .  A
N3060     Co3078   2.073       .  S
H3061      C3084   1.081       .  S
H3062      C3079   1.081       .  S
N3065      N3077   1.324       .  A
N3065      N3081   1.319       .  A
N3065     Co3074   2.072       .  S
C3066      C3080   1.461       .  S
C3066      N3070   1.349       .  A
C3067      C3086   1.458       .  S
C3067      H3071   1.081       .  S
N3068      C3079   1.340       .  A
N3068     Co3078   2.090       .  S
C3072      C3084   1.462       .  S
C3072      N3088   1.347       .  A
Co3074    Cl3085   2.466       .  S
N3075      C3086   1.354       .  A
C3089      C3090   1.401       .  A
C3090      C3091   1.409       .  A
C3090      C3095   1.480       .  S
C3091      C3092   1.403       .  A
C3091      C3096   1.506       .  S
C3092      H3097   1.084       .  S
C3093      C3094   1.416       .  A
C3094      C3098   1.507       .  S
C3095      C3100   1.411       .  A
C3095      C3104   1.400       .  A
C3096      H3112   1.110       .  S
C3096      H3113   1.109       .  S
C3096      H3114   1.111       .  S
C3098      H3109   1.110       .  S
C3098      H3110   1.110       .  S
C3098      H3111   1.108       .  S
C3100      C3101   1.403       .  A
C3101      C3102   1.404       .  A
C3101      H3106   1.084       .  S
C3102      C3103   1.418       .  A
C3103      C3104   1.404       .  A
C3103      C3107   1.508       .  S
C3104      H3108   1.085       .  S
C3105      H3115   1.111       .  S
C3105      H3116   1.106   1_545  S
C3105      H3117   1.109       .  S
C3107      H3118   1.110       .  S
C3107      H3119   1.107       .  S
C3107      H3120   1.111       .  S
C3121      C3122   1.399       .  A
C3121      C3126   1.400       .  A
C3121      H3131   1.085       .  S
C3122      C3123   1.409       .  A
C3122      C3127   1.475       .  S
C3123      C3124   1.402       .  A
C3123      C3128   1.506       .  S
C3124      C3125   1.405       .  A
C3124      H3129   1.084       .  S
C3125      C3126   1.416       .  A
C3127      C3132   1.410       .  A
C3127      C3136   1.400       .  A
C3128      H3144   1.110       .  S
C3128      H3145   1.109       .  S
C3128      H3146   1.111       .  S
C3130      H3141   1.110       .  S
C3130      H3142   1.110       .  S
C3130      H3143   1.108       .  S
C3132      C3133   1.401       .  A
C3132      C3137   1.507       .  S
C3133      C3134   1.404       .  A
C3133      H3138   1.085       .  S
C3134      C3135   1.417       .  A
C3135      C3136   1.401       .  A
C3135      C3139   1.508       .  S
C3136      H3140   1.085       .  S
C3137      H3147   1.111       .  S
C3137      H3148   1.106       .  S
C3137      H3149   1.109       .  S
C3139      H3150   1.110       .  S
C3139      H3151   1.107       .  S
C3139      H3152   1.111       .  S
C3153      C3154   1.403       .  A
C3153      C3158   1.404       .  A
C3153      H3163   1.085       .  S
C3154      C3155   1.409       .  A
C3154      C3159   1.480       .  S
C3155      C3156   1.401       .  A
C3155      C3160   1.507       .  S
C3156      C3157   1.406       .  A
C3156      H3161   1.085       .  S
C3157      C3158   1.414       .  A
C3158      C3162   1.507       .  S
C3159      C3164   1.410       .  A
C3159      C3168   1.401       .  A
C3160      H3176   1.110       .  S
C3160      H3177   1.110       .  S
C3160      H3178   1.111       .  S
C3162      H3173   1.110       .  S
C3162      H3174   1.111       .  S
C3162      H3175   1.108       .  S
C3164      C3165   1.402       .  A
C3164      C3169   1.506       .  S
C3165      C3166   1.405       .  A
C3165      H3170   1.083       .  S
C3166      C3167   1.417       .  A
C3167      C3168   1.403       .  A
C3167      C3171   1.507       .  S
C3168      H3172   1.084       .  S
C3169      H3179   1.111       .  S
C3169      H3180   1.110       .  S
C3169      H3181   1.110       .  S
C3171      H3182   1.110       .  S
C3171      H3183   1.107       .  S
C3185      C3186   1.401       .  A
C3185      C3190   1.402       .  A
C3185      H3195   1.085       .  S
C3186      C3187   1.412   1_655  A
C3186      C3191   1.482       .  S
C3187      C3188   1.405       .  A
C3187      C3192   1.506       .  S
C3190      C3194   1.508       .  S
C3191      C3196   1.413       .  A
C3191      C3200   1.399       .  A
C3192      H3208   1.110       .  S
C3192      H3209   1.110       .  S
C3192      H3210   1.111       .  S
C3194      H3205   1.110       .  S
C3196      C3197   1.408       .  A
C3196      C3201   1.506       .  S
C3197      C3198   1.403       .  A
C3197      H3202   1.084       .  S
C3198      C3199   1.417       .  A
C3199      C3200   1.401       .  A
C3199      C3203   1.509       .  S
C3201      H3211   1.111       .  S
C3201      H3212   1.110       .  S
C3201      H3213   1.110       .  S
C3203      H3215   1.108       .  S
C3217      C3218   1.399       .  A
C3217      C3222   1.399       .  A
C3217      H3227   1.085       .  S
C3218      C3219   1.411       .  A
C3218      C3223   1.475       .  S
C3219      C3220   1.404       .  A
C3219      C3224   1.506       .  S
C3220      C3221   1.401       .  A
C3220      H3225   1.084       .  S
C3221      C3222   1.416       .  A
C3222      C3226   1.509       .  S
C3223      C3228   1.411       .  A
C3223      C3232   1.400       .  A
C3224      H3240   1.110       .  S
C3224      H3241   1.110       .  S
C3224      H3242   1.111       .  S
C3226      H3237   1.111       .  S
C3226      H3238   1.110       .  S
C3226      H3239   1.108       .  S
C3228      C3229   1.402       .  A
C3228      C3233   1.506       .  S
C3229      C3230   1.402       .  A
C3229      H3234   1.084       .  S
C3230      C3231   1.413       .  A
C3231      C3232   1.400       .  A
C3231      C3235   1.508       .  S
C3232      H3236   1.084       .  S
C3233      H3243   1.111       .  S
C3233      H3244   1.110       .  S
C3233      H3245   1.110       .  S
C3235      H3246   1.110       .  S
C3235      H3247   1.108       .  S
C3235      H3248   1.110       .  S
C3249      C3250   1.399       .  A
C3249      C3254   1.401       .  A
C3249      H3259   1.085       .  S
C3250      C3251   1.412       .  A
C3250      C3255   1.481       .  S
C3251      C3252   1.406       .  A
C3251      C3256   1.506       .  S
C3252      C3253   1.402       .  A
C3252      H3257   1.084       .  S
C3253      C3254   1.417       .  A
C3254      C3258   1.509       .  S
C3255      C3260   1.411   1_655  A
C3255      C3264   1.402       .  A
C3256      H3272   1.110       .  S
C3256      H3273   1.110       .  S
C3256      H3274   1.111       .  S
C3258      H3269   1.110       .  S
C3258      H3270   1.110       .  S
C3258      H3271   1.108       .  S
C3261      H3266   1.084       .  S
C3262      C3263   1.414       .  A
C3263      C3264   1.403       .  A
C3263      C3267   1.507       .  S
C3264      H3268   1.084       .  S
C3265      H3275   1.111       .  S
C3265      H3276   1.110       .  S
C3265      H3277   1.110       .  S
C3267      H3278   1.111       .  S
C3267      H3279   1.108       .  S
C3267      H3280   1.110       .  S
C3281      C3282   1.401       .  A
C3281      H3291   1.085       .  S
C3282      C3283   1.410       .  A
C3282      C3287   1.477       .  S
C3283      C3284   1.403       .  A
C3283      C3288   1.506       .  S
C3285      C3286   1.414       .  A
C3286      C3290   1.506       .  S
C3287      C3292   1.410       .  A
C3287      C3296   1.400       .  A
C3288      H3304   1.110       .  S
C3288      H3305   1.109       .  S
C3288      H3306   1.111       .  S
C3290      H3301   1.110       .  S
C3290      H3303   1.108       .  S
C3292      C3293   1.403       .  A
C3293      C3294   1.403       .  A
C3293      H3298   1.084       .  S
C3294      C3295   1.416       .  A
C3295      C3296   1.402       .  A
C3295      C3299   1.508       .  S
C3296      H3300   1.085       .  S
C3297      H3307   1.111       .  S
C3297      H3308   1.110   1_545  S
C3297      H3309   1.109       .  S
C3299      H3310   1.110       .  S
C3299      H3311   1.107       .  S
C3299      H3312   1.111       .  S
C3313      C3314   1.399       .  A
C3313      C3318   1.400       .  A
C3313      H3323   1.086       .  S
C3314      C3315   1.410       .  A
C3314      C3319   1.476       .  S
C3315      C3316   1.403       .  A
C3315      C3320   1.507       .  S
C3316      C3317   1.405       .  A
C3316      H3321   1.085       .  S
C3317      C3318   1.417       .  A
C3318      C3322   1.509       .  S
C3319      C3324   1.409       .  A
C3319      C3328   1.402       .  A
C3320      H3336   1.109       .  S
C3320      H3337   1.109       .  S
C3320      H3338   1.111   1_565  S
C3322      H3333   1.110       .  S
C3322      H3334   1.110       .  S
C3322      H3335   1.106       .  S
C3324      C3325   1.401       .  A
C3324      C3329   1.506       .  S
C3325      C3326   1.404       .  A
C3325      H3330   1.084       .  S
C3326      C3327   1.415       .  A
C3327      C3328   1.402       .  A
C3327      C3331   1.508       .  S
C3328      H3332   1.084       .  S
C3329      H3339   1.111       .  S
C3329      H3340   1.110       .  S
C3329      H3341   1.109       .  S
C3331      H3342   1.110       .  S
C3331      H3343   1.107       .  S
C3331      H3344   1.111       .  S
C3345      C3346   1.398       .  A
C3345      C3350   1.399       .  A
C3346      C3347   1.412       .  A
C3346      C3351   1.477       .  S
C3347      C3348   1.406       .  A
C3347      C3352   1.505       .  S
C3348      C3349   1.403       .  A
C3348      H3353   1.084       .  S
C3349      C3350   1.416       .  A
C3350      C3354   1.509       .  S
C3351      C3356   1.410       .  A
C3351      C3360   1.401       .  A
C3352      H3368   1.110       .  S
C3352      H3369   1.110       .  S
C3352      H3370   1.111       .  S
C3354      H3365   1.110       .  S
C3354      H3367   1.107       .  S
C3356      C3357   1.402       .  A
C3356      C3361   1.506       .  S
C3357      C3358   1.402       .  A
C3357      H3362   1.084       .  S
C3358      C3359   1.413       .  A
C3359      C3360   1.402       .  A
C3360      H3364   1.084       .  S
C3361      H3371   1.111       .  S
C3361      H3372   1.110       .  S
C3361      H3373   1.110       .  S
C3363      H3374   1.110       .  S
C3363      H3375   1.107       .  S
C3377      C3378   1.406       .  A
C3377      C3382   1.405       .  A
C3377      H3387   1.084       .  S
C3378      C3379   1.418       .  A
C3378      C3383   1.501       .  S
C3379      C3380   1.401       .  A
C3379      C3384   1.510       .  S
C3380      C3381   1.410       .  A
C3380      H3385   1.082       .  S
C3381      C3382   1.424       .  A
C3382      C3386   1.509       .  S
C3383      C3388   1.422       .  A
C3383      C3392   1.406       .  A
C3384      H3400   1.110       .  S
C3384      H3401   1.107       .  S
C3384      H3402   1.111       .  S
C3386      H3397   1.111       .  S
C3386      H3398   1.110       .  S
C3386      H3399   1.107       .  S
C3388      C3389   1.405       .  A
C3388      C3393   1.508       .  S
C3389      C3390   1.405       .  A
C3389      H3394   1.084       .  S
C3390      C3391   1.414       .  A
C3391      C3392   1.398       .  A
C3391      C3395   1.506       .  S
C3392      H3396   1.083       .  S
C3393      H3403   1.111       .  S
C3393      H3404   1.110       .  S
C3393      H3405   1.107       .  S
C3395      H3406   1.109       .  S
C3395      H3407   1.108       .  S
C3395      H3408   1.111       .  S
C3409      C3410   1.399       .  A
C3409      C3414   1.402       .  A
C3409      H3419   1.085       .  S
C3410      C3411   1.411       .  A
C3410      C3415   1.481       .  S
C3411      C3412   1.406       .  A
C3411      C3416   1.506       .  S
C3412      C3413   1.405       .  A
C3412      H3417   1.084       .  S
C3413      C3414   1.420       .  A
C3414      C3418   1.509       .  S
C3415      C3420   1.408       .  A
C3416      H3432   1.110       .  S
C3416      H3433   1.109       .  S
C3416      H3434   1.111       .  S
C3418      H3429   1.110       .  S
C3418      H3430   1.111       .  S
C3418      H3431   1.106       .  S
C3420      C3421   1.400       .  A
C3420      C3425   1.507       .  S
C3421      H3426   1.084       .  S
C3422      C3423   1.417       .  A
C3423      C3424   1.407       .  A
C3423      C3427   1.506       .  S
C3424      H3428   1.084       .  S
C3425      H3435   1.111       .  S
C3425      H3436   1.110       .  S
C3425      H3437   1.109       .  S
C3427      H3438   1.111       .  S
C3427      H3439   1.108       .  S
C3427      H3440   1.110       .  S
C3441      C3442   1.401       .  A
C3441      C3446   1.402       .  A
C3441      H3451   1.084       .  S
C3442      C3443   1.410       .  A
C3442      C3447   1.478       .  S
C3443      C3444   1.401       .  A
C3443      C3448   1.507       .  S
C3444      C3445   1.404       .  A
C3444      H3449   1.084       .  S
C3445      C3446   1.416       .  A
C3446      C3450   1.508       .  S
C3447      C3452   1.410       .  A
C3447      C3456   1.400       .  A
C3448      H3464   1.110       .  S
C3448      H3465   1.110       .  S
C3448      H3466   1.111       .  S
C3450      H3461   1.110       .  S
C3450      H3462   1.110       .  S
C3450      H3463   1.106       .  S
C3452      C3453   1.402       .  A
C3452      C3457   1.507       .  S
C3453      C3454   1.404       .  A
C3453      H3458   1.085       .  S
C3454      C3455   1.418       .  A
C3455      C3456   1.403       .  A
C3455      C3459   1.508       .  S
C3456      H3460   1.085       .  S
C3457      H3467   1.111       .  S
C3457      H3468   1.110       .  S
C3457      H3469   1.107       .  S
C3459      H3470   1.111       .  S
C3459      H3471   1.107       .  S
C3459      H3472   1.110       .  S
C3473      C3474   1.401       .  A
C3473      C3478   1.400       .  A
C3473      H3483   1.084       .  S
C3474      C3479   1.479       .  S
C3475      C3476   1.402       .  A
C3475      C3480   1.507       .  S
C3476      H3481   1.084       .  S
C3477      C3478   1.414   1_455  A
C3478      C3482   1.508       .  S
C3479      C3484   1.411       .  A
C3479      C3488   1.400       .  A
C3480      H3496   1.109       .  S
C3480      H3497   1.110       .  S
C3480      H3498   1.111       .  S
C3482      H3493   1.111       .  S
C3482      H3494   1.110       .  S
C3482      H3495   1.107       .  S
C3484      C3485   1.402       .  A
C3484      C3489   1.507       .  S
C3485      C3486   1.405       .  A
C3485      H3490   1.084       .  S
C3486      C3487   1.417       .  A
C3487      C3488   1.401       .  A
C3487      C3491   1.508       .  S
C3488      H3492   1.085       .  S
C3489      H3499   1.111       .  S
C3489      H3500   1.109       .  S
C3491      H3502   1.111       .  S
C3491      H3503   1.107       .  S
C3491      H3504   1.110       .  S
C3505      C3506   1.410       .  A
C3505      C3510   1.404       .  A
C3505      H3515   1.083       .  S
C3506      C3507   1.419       .  A
C3506      C3511   1.503       .  S
C3507      C3508   1.403       .  A
C3507      C3512   1.509       .  S
C3508      C3509   1.409       .  A
C3508      H3513   1.085       .  S
C3509      C3510   1.415       .  A
C3510      C3514   1.505       .  S
C3511      C3516   1.417       .  A
C3511      C3520   1.406       .  A
C3512      H3528   1.110       .  S
C3512      H3529   1.107       .  S
C3512      H3530   1.111       .  S
C3514      H3525   1.111   1_565  S
C3514      H3526   1.110   1_565  S
C3514      H3527   1.107   1_565  S
C3516      C3517   1.403       .  A
C3516      C3521   1.509       .  S
C3517      C3518   1.413       .  A
C3517      H3522   1.080       .  S
C3518      C3519   1.423       .  A
C3519      C3520   1.405       .  A
C3519      C3523   1.508       .  S
C3520      H3524   1.083       .  S
C3521      H3531   1.111       .  S
C3521      H3532   1.110       .  S
C3521      H3533   1.108       .  S
C3523      H3534   1.110       .  S
C3523      H3535   1.108       .  S
C3523      H3536   1.111       .  S
C3537      C3538   1.401       .  A
C3537      C3542   1.404       .  A
C3537      H3547   1.084       .  S
C3538      C3539   1.411       .  A
C3538      C3543   1.483       .  S
C3539      C3540   1.405       .  A
C3539      C3544   1.506       .  S
C3540      C3541   1.404       .  A
C3540      H3545   1.084       .  S
C3541      C3542   1.417       .  A
C3542      C3546   1.508       .  S
C3543      C3548   1.410       .  A
C3543      C3552   1.404       .  A
C3544      H3560   1.110       .  S
C3544      H3561   1.110       .  S
C3544      H3562   1.111       .  S
C3546      H3557   1.110       .  S
C3546      H3558   1.110       .  S
C3546      H3559   1.107       .  S
C3548      C3549   1.402       .  A
C3548      C3553   1.508       .  S
C3549      C3550   1.405       .  A
C3549      H3554   1.085       .  S
C3550      C3551   1.415       .  A
C3551      C3552   1.407       .  A
C3551      C3555   1.507       .  S
C3552      H3556   1.085       .  S
C3553      H3563   1.111       .  S
C3553      H3564   1.110       .  S
C3553      H3565   1.110       .  S
C3555      H3566   1.111       .  S
C3555      H3567   1.108       .  S
C3555      H3568   1.110       .  S
C3569      C3570   1.402       .  A
C3569      C3574   1.405       .  A
C3569      H3579   1.085       .  S
C3570      C3571   1.409       .  A
C3570      C3575   1.479       .  S
C3571      C3572   1.402       .  A
C3571      C3576   1.507       .  S
C3572      C3573   1.407       .  A
C3572      H3577   1.084       .  S
C3573      C3574   1.416       .  A
C3574      C3578   1.507       .  S
C3575      C3580   1.410       .  A
C3576      H3593   1.109       .  S
C3576      H3594   1.111       .  S
C3578      H3589   1.108       .  S
C3578      H3590   1.111       .  S
C3578      H3591   1.110       .  S
C3580      C3581   1.401       .  A
C3580      C3585   1.508       .  S
C3581      H3586   1.085       .  S
C3582      C3583   1.417       .  A
C3583      C3584   1.404       .  A
C3583      C3587   1.507       .  S
C3584      H3588   1.085       .  S
C3585      H3595   1.111       .  S
C3585      H3596   1.110       .  S
C3585      H3597   1.109       .  S
C3587      H3598   1.111       .  S
C3587      H3599   1.108       .  S
C3587      H3600   1.110       .  S
