geometry optimzed in LAMMPS
_audit_creation_date              2020-12-01 
_audit_creation_method            'lammps2cif' 
_symmetry_space_group_name_H-M    'P1' 
_symmetry_Int_Tables_number       1 
_symmetry_cell_setting            triclinic 
loop_ 
_symmetry_equiv_pos_as_xyz 
  x,y,z 
_cell_length_a                    28.49095647 
_cell_length_b                    28.442693471078993 
_cell_length_c                    43.01582939938331 
_cell_angle_alpha                 89.73776496147664 
_cell_angle_beta                  89.21312980123724 
_cell_angle_gamma                 90.04693005116197 
loop_ 
_atom_site_label 
_atom_site_type_symbol 
_atom_site_fract_x 
_atom_site_fract_y 
_atom_site_fract_z 
_atom_site_charge 
O1          O  0.39076967  0.23224783  0.13905094    -0.72700
O2          O  0.44977006  0.10344850  0.12927003    -0.73700
O3          O  0.40765583  0.16918485  0.08902402    -0.62300
O4          O  0.43377693  0.16684071  0.17936664    -0.70700
O5          O  0.36493496  0.13411048  0.19026896    -0.70300
O6          O  0.33819712  0.13573471  0.09650618    -0.61500
O7          O  0.37977927  0.07206851  0.13867820    -0.74000
O8          O  0.32209900  0.19783419  0.14858656    -0.72800
Cu9        Cu  0.42280837  0.16910667  0.13391987     1.04600
Cu10       Cu  0.34877783  0.13380817  0.14385161     1.04300
C11         C  0.34701921  0.23490535  0.14590199     0.93500
C12         C  0.42319696  0.06730254  0.13177955     0.92600
C13         C  0.36972955  0.15261321  0.07800735     0.84800
C14         C  0.40441328  0.15042646  0.19930761     0.91000
O15         O  0.49644791  0.70626666  0.14068804    -0.72700
O16         O  0.45245275  0.83961831  0.12335406    -0.73700
O17         O  0.48825831  0.76357424  0.08688540    -0.62300
O18         O  0.45815339  0.78194916  0.17693909    -0.70700
O19         O  0.52926044  0.80926296  0.18636350    -0.70300
O20         O  0.56047823  0.79022172  0.09343180    -0.61500
O21         O  0.52486896  0.86464067  0.13119574    -0.74000
O22         O  0.56760634  0.73473935  0.14938427    -0.72800
Cu23       Cu  0.47141547  0.77188454  0.13173667     1.04600
Cu24       Cu  0.54813759  0.80052237  0.14033323     1.04300
C25         C  0.53952048  0.69996449  0.14769815     0.93500
C26         C  0.48211478  0.87336821  0.12504119     0.92600
C27         C  0.52861344  0.77384361  0.07559496     0.84800
C28         C  0.48756659  0.79914632  0.19593192     0.91000
O29         O  0.38235144  0.06282955  0.88449535    -0.72700
O30         O  0.33261353  0.19190826  0.87232138    -0.73700
O31         O  0.37227960  0.12269974  0.83162889    -0.62300
O32         O  0.34573698  0.13300616  0.92537792    -0.70700
O33         O  0.41724237  0.16180091  0.93137717    -0.70300
O34         O  0.44242920  0.15306832  0.84035351    -0.61500
O35         O  0.40247376  0.22370074  0.88056626    -0.74000
O36         O  0.45432790  0.09005446  0.89110612    -0.72800
Cu37       Cu  0.35578375  0.12668247  0.87822563     1.04600
Cu38       Cu  0.43159295  0.15820828  0.88604262     1.04300
C39         C  0.42572273  0.05527724  0.88939814     0.93500
C40         C  0.35862341  0.22809867  0.87486788     0.92600
C41         C  0.41281271  0.13585601  0.82153421     0.84800
C42         C  0.37772547  0.14952359  0.94303130     0.91000
O43         O  0.56500832  0.71679467  0.86872148    -0.72700
O44         O  0.51943241  0.84802700  0.88006497    -0.73700
O45         O  0.55932034  0.78089517  0.92093543    -0.62300
O46         O  0.52313984  0.78439279  0.82880113    -0.70700
O47         O  0.45272943  0.75792316  0.84242871    -0.70300
O48         O  0.48821160  0.75340402  0.93188800    -0.61500
O49         O  0.44806186  0.82339929  0.89280228    -0.74000
O50         O  0.49481935  0.68832503  0.88152578    -0.72800
Cu51       Cu  0.54417605  0.78335621  0.87419474     1.04600
Cu52       Cu  0.46852615  0.75476673  0.88754224     1.04300
C53         C  0.53765735  0.68180034  0.87312818     0.93500
C54         C  0.47725324  0.85719412  0.88831601     0.92600
C55         C  0.52849378  0.76691517  0.94097243     0.84800
C56         C  0.48156539  0.77181895  0.82132315     0.91000
O57         O  0.44066180  0.75378282  0.67341772    -0.72700
O58         O  0.40371139  0.74518859  0.58402867    -0.73700
O59         O  0.44623907  0.81602224  0.62152976    -0.62300
O60         O  0.39628319  0.68381955  0.63632795    -0.70700
O61         O  0.32738276  0.71551155  0.64865805    -0.70300
O62         O  0.37602097  0.84413038  0.63405286    -0.61500
O63         O  0.33417054  0.77611827  0.59528491    -0.74000
O64         O  0.37124457  0.78311358  0.68658322    -0.72800
Cu65       Cu  0.42417653  0.74862328  0.62842395     1.04600
Cu66       Cu  0.34977395  0.78060426  0.64154406     1.04300
C67         C  0.41247539  0.76968829  0.69418584     0.93500
C68         C  0.36362434  0.75976374  0.57527044     0.92600
C69         C  0.41855015  0.85100605  0.62568959     0.84800
C70         C  0.35336076  0.67945821  0.64504633     0.91000
O71         O  0.45308239  0.14297694  0.67255941    -0.72700
O72         O  0.49483065  0.15127205  0.58393816    -0.73700
O73         O  0.44872775  0.08119212  0.62072749    -0.62300
O74         O  0.50052277  0.21235592  0.63573698    -0.70700
O75         O  0.56899015  0.18089855  0.64836353    -0.70300
O76         O  0.51853008  0.05305756  0.63286954    -0.61500
O77         O  0.56451898  0.12091996  0.59456761    -0.74000
O78         O  0.52181012  0.11301102  0.68558223    -0.72800
Cu79       Cu  0.47192396  0.14798033  0.62779694     1.04600
Cu80       Cu  0.54584173  0.11584802  0.64075636     1.04300
C81         C  0.48053943  0.12705703  0.69330017     0.93500
C82         C  0.53556780  0.13797861  0.57496855     0.92600
C83         C  0.47623846  0.04614784  0.62463922     0.84800
C84         C  0.54298269  0.21690444  0.64465808     0.91000
O85         O  0.37515621  0.81574990  0.33202082    -0.72700
O86         O  0.33457050  0.79677276  0.42322234    -0.73700
O87         O  0.37867974  0.86840723  0.38798671    -0.62300
O88         O  0.32795643  0.74365186  0.36624022    -0.70700
O89         O  0.39628696  0.71000966  0.37637216    -0.70300
O90         O  0.44879022  0.83947292  0.39855469    -0.61500
O91         O  0.40396297  0.76439482  0.43182997    -0.74000
O92         O  0.44405966  0.78457124  0.34325726    -0.72800
Cu93       Cu  0.35174298  0.80715796  0.37701368     1.04600
Cu94       Cu  0.42568463  0.77339152  0.38781370     1.04300
C95         C  0.41667128  0.80334167  0.32351109     0.93500
C96         C  0.36388488  0.77790849  0.44192357     0.92600
C97         C  0.42075874  0.87459355  0.39669989     0.84800
C98         C  0.35345368  0.70696812  0.36773404     0.91000
O99         O  0.49261692  0.23817884  0.38578113    -0.72700
O100        O  0.44255548  0.10523453  0.40039397    -0.73700
O101        O  0.48968334  0.17399217  0.43668014    -0.62300
O102        O  0.44346667  0.16994568  0.34877788    -0.70700
O103        O  0.51206355  0.14127551  0.33327955    -0.73500
O104        O  0.55797185  0.14330775  0.42196141    -0.61500
O105        O  0.51157136  0.07814001  0.38441656    -0.74000
O106        O  0.56022466  0.20663176  0.37041133    -0.72800
Cu107      Cu  0.46450874  0.17297060  0.39337645     1.04600
Cu108      Cu  0.53763995  0.14147042  0.37691669     1.04300
C109        C  0.53508233  0.24269145  0.37601372     0.93500
C110        C  0.47035931  0.07063576  0.39518186     0.92600
C111        C  0.53053665  0.15882274  0.44335972     0.84800
C112        C  0.47048182  0.15502478  0.32698942     0.91000
O113        O  0.17758447  0.35396404  0.14293166    -0.72700
O114        O  0.04918316  0.40024906  0.12827466    -0.73700
O115        O  0.11947993  0.35893672  0.08981039    -0.62300
O116        O  0.10937251  0.39941606  0.18109104    -0.70700
O117        O  0.14073905  0.46799648  0.16810856    -0.70300
O118        O  0.14907053  0.42938066  0.07965452    -0.61500
O119        O  0.07739332  0.47106121  0.11720947    -0.74000
O120        O  0.21098085  0.42206693  0.13048489    -0.72800
Cu121      Cu  0.11294962  0.37571328  0.13597205     1.04600
Cu122      Cu  0.14548653  0.45008209  0.12339675     1.04300
C123        C  0.21430352  0.37906115  0.13921572     0.93500
C124        C  0.04237215  0.44285976  0.12053519     0.92600
C125        C  0.13661847  0.38892057  0.07036635     0.84800
C126        C  0.12377828  0.44054624  0.18886806     0.91000
O127        O  0.83834804  0.54642850  0.13361170    -0.72700
O128        O  0.70640900  0.58617738  0.14600569    -0.73700
O129        O  0.77669043  0.55142547  0.18698978    -0.62300
O130        O  0.76598069  0.57638564  0.09259524    -0.70700
O131        O  0.74035031  0.50342521  0.08747549    -0.70300
O132        O  0.75248949  0.47885164  0.17775828    -0.61500
O133        O  0.67869065  0.51409922  0.13900829    -0.74000
O134        O  0.81525932  0.47325025  0.12576317    -0.72800
Cu135      Cu  0.77261382  0.56771243  0.14006595     1.04600
Cu136      Cu  0.74588997  0.48989608  0.13234153     1.04300
C137        C  0.84834027  0.50388325  0.12745549     0.93500
C138        C  0.67191149  0.55790042  0.14435055     0.92600
C139        C  0.76653880  0.50982052  0.19681907     0.84800
C140        C  0.75083455  0.54296677  0.07534340     0.91000
O141        O  0.21542907  0.41122921  0.87661628    -0.72700
O142        O  0.08325641  0.46575690  0.88743974    -0.73700
O143        O  0.15021472  0.42189200  0.92669026    -0.62300
O144        O  0.14891335  0.45761367  0.83739253    -0.70700
O145        O  0.11747327  0.38857710  0.82636793    -0.70300
O146        O  0.12105445  0.35102685  0.91786100    -0.61500
O147        O  0.05545186  0.39453990  0.87809297    -0.74000
O148        O  0.18332433  0.34252711  0.86500335    -0.72800
Cu149      Cu  0.15061443  0.44155320  0.88242303     1.04600
Cu150      Cu  0.11836326  0.36680540  0.87139390     1.04300
C151        C  0.21962674  0.36789025  0.86893814     0.93500
C152        C  0.04837436  0.43763856  0.88460473     0.92600
C153        C  0.13644069  0.38184923  0.93680153     0.84800
C154        C  0.13199416  0.42930065  0.81760373     0.91000
O155        O  0.77101193  0.56702944  0.92125696    -0.72700
O156        O  0.77703726  0.52884246  0.82946193    -0.73700
O157        O  0.70820474  0.56963678  0.87027315    -0.62300
O158        O  0.84021986  0.52894863  0.88006794    -0.70700
O159        O  0.81769075  0.45649159  0.89174923    -0.70300
O160        O  0.68103984  0.49880773  0.88277723    -0.61500
O161        O  0.75213457  0.45751325  0.84224721    -0.74000
O162        O  0.74659279  0.49464081  0.93162445    -0.72800
Cu163      Cu  0.77490043  0.55102592  0.87478356     1.04600
Cu164      Cu  0.74849514  0.47434180  0.88750458     1.04300
C165        C  0.75709055  0.53584299  0.94092826     0.93500
C166        C  0.76629464  0.48671931  0.82155616     0.92600
C167        C  0.67377858  0.54190588  0.87540444     0.84800
C168        C  0.85055604  0.48675375  0.88728486     0.91000
O169        O  0.76926678  0.34411853  0.59312731    -0.72700
O170        O  0.77992529  0.38653211  0.68365930    -0.73700
O171        O  0.71179038  0.33846486  0.64743469    -0.62300
O172        O  0.83873926  0.38801998  0.62981484    -0.70700
O173        O  0.81061971  0.45877764  0.61921240    -0.70300
O174        O  0.67839908  0.40605850  0.63438322    -0.61500
O175        O  0.74773283  0.45472102  0.67123128    -0.74000
O176        O  0.74023019  0.41457665  0.58311343    -0.72800
Cu177      Cu  0.77594989  0.36194227  0.63901895     1.04600
Cu178      Cu  0.74316148  0.43598422  0.62661507     1.04300
C179        C  0.75228992  0.37390686  0.57382676     0.93500
C180        C  0.76575748  0.42775452  0.69155783     0.92600
C181        C  0.67508565  0.36285406  0.64283837     0.84800
C182        C  0.84557878  0.43069514  0.62199775     0.91000
O183        O  0.20952732  0.50085785  0.62885706    -0.72700
O184        O  0.07570949  0.45485239  0.61554390    -0.73700
O185        O  0.14624618  0.49958931  0.57851964    -0.62300
O186        O  0.13893310  0.45481645  0.66641654    -0.70700
O187        O  0.11162471  0.52488541  0.67986852    -0.70300
O188        O  0.11825527  0.57008817  0.59029569    -0.61500
O189        O  0.05006376  0.52552005  0.62871167    -0.74000
O190        O  0.17951616  0.57009522  0.64197311    -0.72800
Cu191      Cu  0.14352857  0.47502712  0.62177241     1.04600
Cu192      Cu  0.11388685  0.54995088  0.63570910     1.04300
C193        C  0.21494083  0.54334935  0.63783708     0.93500
C194        C  0.04169750  0.48355909  0.62009346     0.92600
C195        C  0.13425986  0.54102924  0.57021042     0.84800
C196        C  0.12430166  0.48313810  0.68730756     0.91000
O197        O  0.75423962  0.46316821  0.34577690    -0.72700
O198        O  0.75241101  0.41861533  0.43363255    -0.73700
O199        O  0.82145431  0.46109158  0.39410804    -0.62300
O200        O  0.68536852  0.41872405  0.38638523    -0.70700
O201        O  0.71237287  0.34958246  0.37055653    -0.70300
O202        O  0.84509636  0.39003124  0.38023987    -0.61500
O203        O  0.77646934  0.34716821  0.42066422    -0.74000
O204        O  0.78083550  0.39400318  0.33032291    -0.72800
Cu205      Cu  0.75260277  0.44282275  0.39047057     1.04600
Cu206      Cu  0.77953000  0.36775930  0.37487664     1.04300
C207        C  0.76875561  0.43640280  0.32391649     0.93500
C208        C  0.76235674  0.37642297  0.44131338     0.92600
C209        C  0.85473671  0.43199772  0.38821779     0.84800
C210        C  0.67799624  0.37649440  0.37752506     0.91000
O211        O  0.18176791  0.58668237  0.36375453    -0.72700
O212        O  0.05409518  0.53770200  0.38276861    -0.73700
O213        O  0.12576904  0.57825151  0.41896250    -0.62300
O214        O  0.11173624  0.54076967  0.32756478    -0.70700
O215        O  0.14421075  0.47192337  0.33823379    -0.70300
O216        O  0.15579480  0.50753661  0.42679869    -0.61500
O217        O  0.08346976  0.46661405  0.39104845    -0.74000
O218        O  0.21587789  0.51859524  0.37449054    -0.72800
Cu219      Cu  0.11739259  0.56330970  0.37281733     1.04600
Cu220      Cu  0.15092714  0.48873958  0.38296226     1.04300
C221        C  0.21884859  0.56219535  0.36683022     0.93500
C222        C  0.04814948  0.49458818  0.38968661     0.92600
C223        C  0.14320167  0.54732948  0.43730211     0.84800
C224        C  0.12545409  0.49977356  0.31876939     0.91000
C225        C  0.91674930  0.48728235  0.40691609    -0.12000
C226        C  0.90480881  0.44665102  0.39032078     0.05000
C227        C  0.94128711  0.42072652  0.37563770    -0.07300
C228        C  0.98789337  0.43553190  0.37776917    -0.08100
C229        C  0.99960700  0.47671198  0.39340914    -0.02600
C230        C  0.96352740  0.50268489  0.40841262     0.04200
N231        N  0.97374940  0.54414487  0.42575213     0.66700
H232        H  0.88953717  0.50757015  0.41868716     0.15600
H233        H  0.01503462  0.41589150  0.36539456     0.15300
N234        N  0.93159501  0.38111372  0.35648899     0.74400
O235        O  0.96806226  0.58390257  0.41322614    -0.39000
O236        O  0.97603693  0.54137756  0.45498470    -0.39000
O237        O  0.92936421  0.38675864  0.32742986    -0.39700
O238        O  0.93669786  0.34023281  0.36742261    -0.39800
C239        C  0.17733901  0.53032895  0.52125646    -0.12000
C240        C  0.14099564  0.55359572  0.53696492     0.05000
C241        C  0.11029222  0.58238412  0.51969376    -0.07300
C242        C  0.11414834  0.58340472  0.48699366    -0.08100
C243        C  0.14729539  0.55527923  0.47124480    -0.02600
C244        C  0.18024339  0.52969491  0.48901722     0.04200
N245        N  0.21480805  0.49961720  0.47512840     0.66700
H246        H  0.20231124  0.50902812  0.53420025     0.15600
H247        H  0.08847342  0.60340545  0.47378493     0.15300
N248        N  0.07268900  0.60727887  0.53445539     0.74400
O249        O  0.25756439  0.50979986  0.47832682    -0.39000
O250        O  0.20405102  0.45724446  0.47028403    -0.39000
O251        O  0.07629401  0.65113749  0.53803102    -0.39700
O252        O  0.03257301  0.58850104  0.53597070    -0.39800
C253        C  0.78077033  0.33468310  0.52485558    -0.12000
C254        C  0.74772916  0.36359522  0.54015217     0.05000
C255        C  0.71429844  0.38782815  0.52196528    -0.07300
C256        C  0.71781678  0.38672849  0.48973600    -0.08100
C257        C  0.75454967  0.36338183  0.47443957    -0.02600
C258        C  0.78459463  0.33454215  0.49209074     0.04200
N259        N  0.82148827  0.30837188  0.47757012     0.66700
H260        H  0.80621368  0.31512874  0.53832190     0.15600
H261        H  0.69319914  0.40773202  0.47650865     0.15300
N262        N  0.67826201  0.41672790  0.53536511     0.74400
O263        O  0.86211998  0.32594135  0.47585017    -0.39000
O264        O  0.81637770  0.26471116  0.47376599    -0.39000
O265        O  0.68783096  0.45900509  0.54143735    -0.39700
O266        O  0.63602383  0.40612639  0.53039497    -0.39800
C267        C  0.92943760  0.41178047  0.61117341    -0.12000
C268        C  0.89491588  0.44617411  0.61702144     0.05000
C269        C  0.90928443  0.49312480  0.62085378    -0.07300
C270        C  0.95704102  0.50423116  0.62020069    -0.08100
C271        C  0.99179786  0.46950655  0.61627763    -0.02600
C272        C  0.97736825  0.42276488  0.61089233     0.04200
N273        N  0.01051106  0.38562343  0.60646195     0.66700
H274        H  0.91920612  0.37517215  0.60769791     0.15600
H275        H  0.96688607  0.54081509  0.62419463     0.15300
N276        N  0.87646533  0.52940012  0.62821792     0.74400
O277        O  0.01753704  0.35690282  0.62835870    -0.39000
O278        O  0.02327540  0.37487582  0.57920384    -0.39000
O279        O  0.87027255  0.54061135  0.65630984    -0.39700
O280        O  0.86443891  0.55782422  0.60718861    -0.39800
C281        C  0.76622775  0.50526202  0.76449992    -0.12000
C282        C  0.76956873  0.47158522  0.78829113     0.05000
C283        C  0.77485852  0.42377356  0.77968982    -0.07300
C284        C  0.77466708  0.41074632  0.74825510    -0.08100
C285        C  0.76918018  0.44411181  0.72449976    -0.02600
C286        C  0.76586822  0.49222940  0.73300874     0.04200
N287        N  0.76281890  0.52864508  0.71013302     0.66700
H288        H  0.76283233  0.54232765  0.77037051     0.15600
H289        H  0.77809500  0.37364716  0.74248468     0.15300
N290        N  0.78155718  0.38778873  0.80245174     0.74400
O291        O  0.72319337  0.54590746  0.70404326    -0.39000
O292        O  0.79931273  0.55156102  0.70288570    -0.39000
O293        O  0.74769013  0.36103308  0.80955561    -0.39700
O294        O  0.82279205  0.37510714  0.80875808    -0.39800
C295        C  0.12122816  0.40942531  0.76174486    -0.12000
C296        C  0.12904271  0.44378554  0.78439828     0.05000
C297        C  0.13356356  0.49131850  0.77470421    -0.07300
C298        C  0.13076072  0.50299910  0.74316534    -0.08100
C299        C  0.12392954  0.46854406  0.72050243    -0.02600
C300        C  0.11874958  0.42116695  0.73014042     0.04200
N301        N  0.10935508  0.38463399  0.70841777     0.66700
H302        H  0.11721702  0.37260034  0.76855500     0.15600
H303        H  0.13488121  0.53979190  0.73629069     0.15300
N304        N  0.14044182  0.52848446  0.79642058     0.74400
O305        O  0.14265295  0.35872130  0.69925409    -0.39000
O306        O  0.06767466  0.37044629  0.70549134    -0.39000
O307        O  0.18064494  0.54670066  0.79869429    -0.39700
O308        O  0.10520800  0.55038894  0.80693210    -0.39800
C309        C  0.96516533  0.41858458  0.89651724    -0.12000
C310        C  0.99883525  0.45306930  0.88868224     0.05000
C311        C  0.98337724  0.49927462  0.88278184    -0.07300
C312        C  0.93516693  0.50926691  0.88316680    -0.08100
C313        C  0.90125100  0.47418912  0.88962817    -0.02600
C314        C  0.91706854  0.42858535  0.89713478     0.04200
N315        N  0.88520270  0.39160449  0.90524140     0.66700
H316        H  0.97607814  0.38319132  0.90180956     0.15600
H317        H  0.92446018  0.54464454  0.87773373     0.15300
N318        N  0.01553464  0.53616674  0.87495604     0.74400
O319        O  0.87486146  0.36149498  0.88499485    -0.39000
O320        O  0.87820409  0.38197649  0.93359194    -0.39000
O321        O  0.01950244  0.54912306  0.84695214    -0.39700
O322        O  0.02887525  0.56354625  0.89608163    -0.39800
C323        C  0.78768403  0.44877891  0.23563921    -0.12000
C324        C  0.77175370  0.49477702  0.22992959     0.05000
C325        C  0.75722769  0.52213476  0.25556948    -0.07300
C326        C  0.75711743  0.50252283  0.28570667    -0.08100
C327        C  0.77144601  0.45573137  0.29133561    -0.02600
C328        C  0.78795438  0.42924842  0.26566612     0.04200
N329        N  0.80466660  0.38224676  0.26931990     0.66700
H330        H  0.79953523  0.42711216  0.21627768     0.15600
H331        H  0.74464134  0.52420075  0.30486124     0.15300
N332        N  0.73960728  0.56868844  0.25140085     0.74400
O333        O  0.77718406  0.34838259  0.26433095    -0.39000
O334        O  0.84833604  0.37488729  0.26949586    -0.39000
O335        O  0.69581114  0.57496162  0.25043112    -0.39700
O336        O  0.76593859  0.60318943  0.25710713    -0.39800
C337        C  0.71942364  0.51744313  0.99150782    -0.12000
C338        C  0.75154948  0.54550969  0.97484010     0.05000
C339        C  0.77875207  0.57825438  0.99149766    -0.07300
C340        C  0.77595050  0.57929961  0.02427861    -0.08100
C341        C  0.74660055  0.54805758  0.04093854    -0.02600
C342        C  0.71674747  0.51806343  0.02387876     0.04200
N343        N  0.68408082  0.48681406  0.03882869     0.66700
H344        H  0.69672083  0.49311648  0.97926014     0.15600
H345        H  0.79899984  0.60290243  0.03681185     0.15300
N346        N  0.81152500  0.60843890  0.97589053     0.74400
O347        O  0.64122162  0.49787462  0.03961087    -0.39000
O348        O  0.69510994  0.44410735  0.04198339    -0.39000
O349        O  0.80164870  0.65140307  0.97264354    -0.39700
O350        O  0.85360988  0.59532415  0.97273897    -0.39800
C351        C  0.11390782  0.42364748  0.24591608    -0.12000
C352        C  0.12165756  0.45665557  0.22202573     0.05000
C353        C  0.12854894  0.50439980  0.23054147    -0.07300
C354        C  0.12762277  0.51767720  0.26195112    -0.08100
C355        C  0.12124247  0.48448681  0.28575196    -0.02600
C356        C  0.11406565  0.43684574  0.27738303     0.04200
N357        N  0.10592325  0.40129134  0.30041110     0.66700
H358        H  0.10848457  0.38694643  0.24025153     0.15600
H359        H  0.13364390  0.55423335  0.26776596     0.15300
N360        N  0.13723087  0.54018557  0.20777743     0.74400
O361        O  0.06422555  0.38949527  0.30694909    -0.39000
O362        O  0.13891105  0.37372118  0.30729327    -0.39000
O363        O  0.10369316  0.56580754  0.19910395    -0.39700
O364        O  0.17885607  0.55372079  0.20275062    -0.39800
C365        C  0.10808210  0.35044035  0.02167271    -0.12000
C366        C  0.14140074  0.37868896  0.03661784     0.05000
C367        C  0.17658977  0.40102505  0.01822234    -0.07300
C368        C  0.17576721  0.39740491  0.98600210    -0.08100
C369        C  0.14007391  0.37322890  0.97079251    -0.02600
C370        C  0.10697738  0.34765232  0.98893951     0.04200
N371        N  0.07043052  0.32132135  0.97475828     0.66700
H372        H  0.08094529  0.33263801  0.03536709     0.15600
H373        H  0.20250500  0.41622538  0.97252903     0.15300
N374        N  0.21305030  0.42885938  0.03144509     0.74400
O375        O  0.07634463  0.27792422  0.97020334    -0.39000
O376        O  0.02938030  0.33793090  0.97448204    -0.39000
O377        O  0.25502505  0.41628290  0.02696330    -0.39700
O378        O  0.20499359  0.47161782  0.03710809    -0.39800
C379        C  0.98287429  0.50649922  0.12418809    -0.12000
C380        C  0.99326694  0.45959260  0.11739495     0.05000
C381        C  0.95575525  0.42856501  0.11091643    -0.07300
C382        C  0.90918232  0.44387032  0.11398377    -0.08100
C383        C  0.89852827  0.49019668  0.12260843    -0.02600
C384        C  0.93636686  0.52219590  0.12654446     0.04200
N385        N  0.92876645  0.57075667  0.13325781     0.66700
H386        H  0.01104393  0.53106218  0.12880409     0.15600
H387        H  0.88117605  0.41907190  0.10951067     0.15300
N388        N  0.96413404  0.38186428  0.10005603     0.74400
O389        O  0.93119409  0.58453392  0.16103162    -0.39000
O390        O  0.93297738  0.60047307  0.11151891    -0.39000
O391        O  0.95651314  0.34755924  0.11813603    -0.39700
O392        O  0.96647193  0.37472427  0.07113960    -0.39800
C393        C  0.56323266  0.31712129  0.39910082    -0.12000
C394        C  0.55786379  0.28907923  0.37265470     0.05000
C395        C  0.58503077  0.29932382  0.34585105    -0.07300
C396        C  0.62056247  0.33302269  0.34702665    -0.08100
C397        C  0.63019437  0.35678990  0.37462317    -0.02600
C398        C  0.59934992  0.35082388  0.40040928     0.04200
N399        N  0.60745413  0.37421967  0.42914295     0.66700
H400        H  0.54259348  0.30945463  0.42001642     0.15600
H401        H  0.64373438  0.33752093  0.32687242     0.15300
N402        N  0.58004510  0.27260259  0.31809313     0.74400
O403        O  0.58554092  0.41178405  0.43490053    -0.39000
O404        O  0.62505422  0.35140473  0.45134106    -0.39000
O405        O  0.55835214  0.29045487  0.29555605    -0.39700
O406        O  0.60719881  0.23829983  0.31327296    -0.39800
C407        C  0.33226713  0.62589706  0.38436944    -0.12000
C408        C  0.33100572  0.66099299  0.36144006     0.05000
C409        C  0.29972605  0.65565104  0.33651855    -0.07300
C410        C  0.26721679  0.61872424  0.33681773    -0.08100
C411        C  0.26428073  0.58704897  0.36186161    -0.02600
C412        C  0.29888404  0.58939878  0.38504348     0.04200
N413        N  0.29568952  0.56074144  0.41220986     0.66700
H414        H  0.35568865  0.62983104  0.40396203     0.15600
H415        H  0.24122627  0.61728088  0.31853277     0.15300
N416        N  0.29869030  0.68888406  0.31154100     0.74400
O417        O  0.32449018  0.52746834  0.41550149    -0.39000
O418        O  0.27521220  0.57733259  0.43590094    -0.39000
O419        O  0.31888350  0.67865897  0.28617515    -0.39700
O420        O  0.26802515  0.72087861  0.31187439    -0.39800
C421        C  0.39971819  0.95790473  0.40570614    -0.12000
C422        C  0.43529209  0.92371361  0.40325130     0.05000
C423        C  0.48245178  0.93876932  0.40342053    -0.07300
C424        C  0.49248421  0.98690275  0.40242770    -0.08100
C425        C  0.45667014  0.02099924  0.40133596    -0.02600
C426        C  0.40969089  0.00595054  0.40450898     0.04200
N427        N  0.37139333  0.03830150  0.40425623     0.66700
H428        H  0.36271702  0.94730055  0.40686914     0.15600
H429        H  0.52945397  0.99762653  0.40141275     0.15300
N430        N  0.52059808  0.90620931  0.40329972     0.74400
O431        O  0.34927267  0.04431802  0.37933480    -0.39000
O432        O  0.35183598  0.04918418  0.42971710    -0.39000
O433        O  0.54204036  0.89801258  0.37804094    -0.39700
O434        O  0.54065451  0.89708299  0.42859872    -0.39800
C435        C  0.56660380  0.29395027  0.62291874    -0.12000
C436        C  0.56415705  0.26382375  0.64867590     0.05000
C437        C  0.59089442  0.27448069  0.67506771    -0.07300
C438        C  0.62305722  0.31164495  0.67400662    -0.08100
C439        C  0.62959041  0.33843807  0.64688386    -0.02600
C440        C  0.59949790  0.33067648  0.62160790     0.04200
N441        N  0.60706264  0.35400550  0.59263343     0.66700
H442        H  0.54673262  0.28569292  0.60221505     0.15600
H443        H  0.64590430  0.31712577  0.69372258     0.15300
N444        N  0.58758219  0.24646318  0.70259574     0.74400
O445        O  0.63045942  0.33304287  0.57179855    -0.39000
O446        O  0.57940673  0.38653363  0.58494608    -0.39000
O447        O  0.62071829  0.21880154  0.70898313    -0.39700
O448        O  0.55939211  0.25881223  0.72391322    -0.39800
C449        C  0.56211394  0.11555172  0.48924742    -0.12000
C450        C  0.54439002  0.15738128  0.47642880     0.05000
C451        C  0.53326177  0.19489945  0.49647441    -0.07300
C452        C  0.53516027  0.18852301  0.52861343    -0.08100
C453        C  0.54781203  0.14519593  0.54166864    -0.02600
C454        C  0.56385516  0.10903694  0.52171912     0.04200
N455        N  0.57776690  0.06432132  0.53370265     0.66700
H456        H  0.57110629  0.08628564  0.47403402     0.15600
H457        H  0.52396264  0.21725221  0.54367442     0.15300
N458        N  0.51843340  0.23936186  0.48459217     0.74400
O459        O  0.54737638  0.03231699  0.53697830    -0.39000
O460        O  0.62066509  0.05330366  0.53291230    -0.39000
O461        O  0.47541465  0.24982814  0.48565522    -0.39700
O462        O  0.54840993  0.27165527  0.48089374    -0.39800
C463        C  0.33277187  0.60092117  0.62459517    -0.12000
C464        C  0.33124681  0.63302176  0.64923722     0.05000
C465        C  0.29894228  0.62556438  0.67386947    -0.07300
C466        C  0.26450702  0.59108256  0.67125361    -0.08100
C467        C  0.26141816  0.56366489  0.64440559    -0.02600
C468        C  0.29802297  0.56609705  0.62198456     0.04200
N469        N  0.29771015  0.53730530  0.59491067     0.66700
H470        H  0.35788583  0.60599085  0.60557617     0.15600
H471        H  0.23731298  0.58858751  0.68923020     0.15300
N472        N  0.29853259  0.65491441  0.70072556     0.74400
O473        O  0.28216304  0.55400954  0.56985878    -0.39000
O474        O  0.32383192  0.50152346  0.59396185    -0.39000
O475        O  0.26922184  0.68806798  0.70259034    -0.39700
O476        O  0.31763323  0.64006188  0.72516350    -0.39800
C477        C  0.33575941  0.80132446  0.52762986    -0.12000
C478        C  0.35327636  0.76015041  0.54141544     0.05000
C479        C  0.36727745  0.72276320  0.52187208    -0.07300
C480        C  0.36698157  0.72845136  0.48948348    -0.08100
C481        C  0.35308558  0.77091491  0.47563788    -0.02600
C482        C  0.33594874  0.80722420  0.49506757     0.04200
N483        N  0.32375877  0.85207701  0.48252266     0.66700
H484        H  0.32531222  0.83068924  0.54226413     0.15600
H485        H  0.37971785  0.69983739  0.47495493     0.15300
N486        N  0.38268476  0.67893682  0.53449532     0.74400
O487        O  0.28100150  0.86277500  0.48006765    -0.39000
O488        O  0.35424210  0.88429833  0.48177416    -0.39000
O489        O  0.35458644  0.64461472  0.53530762    -0.39700
O490        O  0.42609866  0.67132378  0.53697971    -0.39800
C491        C  0.40092499  0.93565180  0.61691922    -0.12000
C492        C  0.43467646  0.90025921  0.62145620     0.05000
C493        C  0.48209710  0.91345875  0.62416436    -0.07300
C494        C  0.49441632  0.96094051  0.62315771    -0.08100
C495        C  0.46047033  0.99664946  0.62064372    -0.02600
C496        C  0.41307269  0.98339025  0.61678639     0.04200
N497        N  0.37642135  0.01743375  0.61443395     0.66700
H498        H  0.36394466  0.92628776  0.61451717     0.15600
H499        H  0.53139311  0.96982279  0.62604106     0.15300
N500        N  0.51772126  0.87982322  0.63101107     0.74400
O501        O  0.35996213  0.02681332  0.58803677    -0.39000
O502        O  0.35252800  0.02742046  0.63842618    -0.39000
O503        O  0.54669513  0.86835476  0.60994212    -0.39700
O504        O  0.52772362  0.87197622  0.65905152    -0.39800
C505        C  0.56274040  0.60648841  0.89701767    -0.12000
C506        C  0.55789109  0.63403327  0.87011433     0.05000
C507        C  0.58293399  0.62095999  0.84297718    -0.07300
C508        C  0.61648372  0.58512273  0.84427017    -0.08100
C509        C  0.62616878  0.56205458  0.87229593    -0.02600
C510        C  0.59694231  0.57085727  0.89843680     0.04200
N511        N  0.60554796  0.54870749  0.92765399     0.66700
H512        H  0.54380108  0.61613349  0.91810178     0.15600
H513        H  0.63841954  0.57860045  0.82394694     0.15300
N514        N  0.57808647  0.64661628  0.81461203     0.74400
O515        O  0.63132236  0.56918545  0.94700888    -0.39000
O516        O  0.57823901  0.51653191  0.93701623    -0.39000
O517        O  0.60855774  0.67716745  0.80751618    -0.39700
O518        O  0.55284634  0.62974212  0.79350783    -0.39800
C519        C  0.47760937  0.77492598  0.73217224    -0.12000
C520        C  0.42902217  0.77269843  0.72689500     0.05000
C521        C  0.39832529  0.77167565  0.75293457    -0.07300
C522        C  0.41650252  0.77201794  0.78307743    -0.08100
C523        C  0.46514769  0.77348153  0.78843380    -0.02600
C524        C  0.49582074  0.77538060  0.76233952     0.04200
N525        N  0.54558756  0.77542341  0.76568766     0.66700
H526        H  0.50204374  0.77581771  0.71262740     0.15600
H527        H  0.39193736  0.77068028  0.80252350     0.15300
N528        N  0.34871374  0.76767054  0.74950873     0.74400
O529        O  0.56717675  0.73679541  0.76426792    -0.39000
O530        O  0.56800872  0.81300438  0.76057288    -0.39000
O531        O  0.32958108  0.72821074  0.75411562    -0.39700
O532        O  0.32383747  0.80426837  0.75116675    -0.39800
C533        C  0.31289488  0.28266525  0.84265913    -0.12000
C534        C  0.33595223  0.27443583  0.87069925     0.05000
C535        C  0.32694302  0.30476745  0.89597494    -0.07300
C536        C  0.29267932  0.34006207  0.89349915    -0.08100
C537        C  0.26601458  0.34467872  0.86654004    -0.02600
C538        C  0.27801191  0.31711290  0.84040248     0.04200
N539        N  0.25293368  0.32148370  0.81201950     0.66700
H540        H  0.31935018  0.25945097  0.82291492     0.15600
H541        H  0.28320709  0.36042057  0.91410243     0.15300
N542        N  0.34728634  0.29628962  0.92554403     0.74400
O543        O  0.27010418  0.34645932  0.79037011    -0.39000
O544        O  0.22170768  0.29162189  0.80578591    -0.39000
O545        O  0.37644302  0.32560033  0.93579128    -0.39700
O546        O  0.32661761  0.26873634  0.94431475    -0.39800
C547        C  0.47645674  0.12699673  0.78205138    -0.12000
C548        C  0.42799189  0.13029399  0.78839085     0.05000
C549        C  0.39695048  0.12980193  0.76306546    -0.07300
C550        C  0.41492614  0.12749990  0.73250913    -0.08100
C551        C  0.46356827  0.12558061  0.72624850    -0.02600
C552        C  0.49438777  0.12479066  0.75164744     0.04200
N553        N  0.54414470  0.12496000  0.74725522     0.66700
H554        H  0.50125515  0.12690151  0.80102489     0.15600
H555        H  0.39033190  0.12806738  0.71342575     0.15300
N556        N  0.34740926  0.13419066  0.76757899     0.74400
O557        O  0.56602432  0.16319059  0.75021797    -0.39000
O558        O  0.56635793  0.08680960  0.74975474    -0.39000
O559        O  0.32875210  0.17415148  0.76457864    -0.39700
O560        O  0.32204458  0.09797846  0.76553811    -0.39800
C561        C  0.40760900  0.97107054  0.90082819    -0.12000
C562        C  0.44126599  0.00540272  0.89257928     0.05000
C563        C  0.48739128  0.99040339  0.88565430    -0.07300
C564        C  0.49785907  0.94231928  0.88517012    -0.08100
C565        C  0.46369724  0.90772645  0.89187403    -0.02600
C566        C  0.41830590  0.92290638  0.90093693     0.04200
N567        N  0.38273574  0.89040940  0.91070378     0.66700
H568        H  0.37189526  0.98173450  0.90721664     0.15600
H569        H  0.53366567  0.93209407  0.87874951     0.15300
N570        N  0.52380385  0.02305405  0.87781728     0.74400
O571        O  0.37670069  0.88272988  0.93940336    -0.39000
O572        O  0.35026702  0.88025136  0.89223426    -0.39000
O573        O  0.55372017  0.03318844  0.89809236    -0.39700
O574        O  0.53362162  0.03052806  0.84952899    -0.39800
C575        C  0.61821184  0.60421205  0.17663475    -0.12000
C576        C  0.62492162  0.57849114  0.14922501     0.05000
C577        C  0.59426201  0.58618907  0.12420579    -0.07300
C578        C  0.56104022  0.62258337  0.12594600    -0.08100
C579        C  0.55912184  0.65240841  0.15177882    -0.02600
C580        C  0.58628269  0.64144163  0.17796622     0.04200
N581        N  0.58508921  0.67045606  0.20499087     0.66700
H582        H  0.64181646  0.59888378  0.19603357     0.15600
H583        H  0.54070597  0.63114050  0.10540161     0.15300
N584        N  0.60109212  0.56265809  0.09527946     0.74400
O585        O  0.56136609  0.65725580  0.22842972    -0.39000
O586        O  0.61611239  0.70169029  0.20818681    -0.39000
O587        O  0.57204539  0.53154900  0.08739393    -0.39700
O588        O  0.62715998  0.58142811  0.07476118    -0.39800
C589        C  0.42252573  0.80884296  0.23474198    -0.12000
C590        C  0.47125629  0.80697893  0.22879152     0.05000
C591        C  0.50160736  0.81074495  0.25438844    -0.07300
C592        C  0.48292976  0.81070926  0.28486606    -0.08100
C593        C  0.43412721  0.80945569  0.29075639    -0.02600
C594        C  0.40391934  0.81118258  0.26505754     0.04200
N595        N  0.35420579  0.81451890  0.26904956     0.66700
H596        H  0.39817912  0.80829590  0.21557532     0.15600
H597        H  0.50704327  0.81152730  0.30415444     0.15300
N598        N  0.55127029  0.81456143  0.25016367     0.74400
O599        O  0.33512705  0.85447848  0.26759319    -0.39000
O600        O  0.32934093  0.77832628  0.26534831    -0.39000
O601        O  0.56979626  0.85488739  0.25014421    -0.39700
O602        O  0.57665313  0.77908228  0.25518197    -0.39800
C603        C  0.51502048  0.73029615  0.99269644    -0.12000
C604        C  0.53752853  0.76558474  0.97513050     0.05000
C605        C  0.56284695  0.80058662  0.99116344    -0.07300
C606        C  0.56228707  0.80124151  0.02403914    -0.08100
C607        C  0.53673095  0.76762364  0.04143240    -0.02600
C608        C  0.51442411  0.73087261  0.02522179     0.04200
N609        N  0.49064716  0.69365467  0.04139184     0.66700
H610        H  0.49626313  0.70233630  0.98098957     0.15600
H611        H  0.57971219  0.82983766  0.03595681     0.15300
N612        N  0.58629715  0.83762459  0.97466467     0.74400
O613        O  0.44663331  0.69557229  0.04483504    -0.39000
O614        O  0.51110303  0.65461205  0.04447055    -0.39000
O615        O  0.56555497  0.87637075  0.97086904    -0.39700
O616        O  0.63023907  0.83565437  0.97085664    -0.39800
C617        C  0.32884319  0.31496940  0.12641647    -0.12000
C618        C  0.32365257  0.28071858  0.14967985     0.05000
C619        C  0.29007767  0.28765858  0.17353306    -0.07300
C620        C  0.25899743  0.32532297  0.17178702    -0.08100
C621        C  0.25942540  0.35574453  0.14605847    -0.02600
C622        C  0.29679390  0.35235220  0.12424703     0.04200
N623        N  0.29938207  0.38220671  0.09761939     0.66700
H624        H  0.35503137  0.31025895  0.10808740     0.15600
H625        H  0.23120140  0.32801159  0.18925786     0.15300
N626        N  0.28573375  0.25577253  0.19913046     0.74400
O627        O  0.32191305  0.42028412  0.09942817    -0.39000
O628        O  0.29348124  0.36407736  0.07126783    -0.39000
O629        O  0.30036230  0.26862800  0.22529689    -0.39700
O630        O  0.25640063  0.22258342  0.19781543    -0.39800
C631        C  0.46705542  0.15145614  0.23845709    -0.12000
C632        C  0.41871669  0.14993248  0.23256343     0.05000
C633        C  0.38718595  0.14970758  0.25827203    -0.07300
C634        C  0.40465729  0.15194420  0.28873883    -0.08100
C635        C  0.45324879  0.15334892  0.29439727    -0.02600
C636        C  0.48441568  0.15289742  0.26861091     0.04200
N637        N  0.53405899  0.15550434  0.27224454     0.66700
H638        H  0.49224753  0.15141793  0.21933905     0.15600
H639        H  0.37992271  0.15202692  0.30810306     0.15300
N640        N  0.33756010  0.14802472  0.25417261     0.74400
O641        O  0.55770924  0.11804204  0.27132510    -0.39000
O642        O  0.55445666  0.19410265  0.26683599    -0.39000
O643        O  0.31668152  0.10911707  0.25726038    -0.39700
O644        O  0.31417870  0.18541831  0.25696482    -0.39800
C645        C  0.39100501  0.18783257  0.02714615    -0.12000
C646        C  0.36441212  0.15410665  0.04349183     0.05000
C647        C  0.33794379  0.12151436  0.02614462    -0.07300
C648        C  0.34091948  0.12186270  0.99335515    -0.08100
C649        C  0.37021850  0.15384864  0.97729058    -0.02600
C650        C  0.39443546  0.18799748  0.99476288     0.04200
N651        N  0.42248909  0.22381758  0.98029524     0.66700
H652        H  0.41073186  0.21420734  0.03973951     0.15600
H653        H  0.32175441  0.09543403  0.98045671     0.15300
N654        N  0.31002338  0.08624087  0.04118218     0.74400
O655        O  0.40823223  0.26572281  0.98164585    -0.39000
O656        O  0.46583005  0.21650998  0.97633002    -0.39000
O657        O  0.26626109  0.09232321  0.04355301    -0.39700
O658        O  0.32642449  0.04526778  0.04400928    -0.39800
C659        C  0.50120304  0.95881612  0.12702548    -0.12000
C660        C  0.46765218  0.92337007  0.12178839     0.05000
C661        C  0.42091502  0.93697870  0.11611091    -0.07300
C662        C  0.40814104  0.98415216  0.11875590    -0.08100
C663        C  0.44095707  0.01907133  0.12623199    -0.02600
C664        C  0.48854684  0.00626082  0.12892653     0.04200
N665        N  0.52426398  0.04037500  0.13450786     0.66700
H666        H  0.53802711  0.94965307  0.13061389     0.15600
H667        H  0.37137581  0.99348764  0.11501178     0.15300
N668        N  0.38588477  0.90378935  0.10742223     0.74400
O669        O  0.53999038  0.04479920  0.16162053    -0.39000
O670        O  0.54795780  0.05622871  0.11177227    -0.39000
O671        O  0.35594422  0.89039136  0.12746076    -0.39700
O672        O  0.37714641  0.89862879  0.07895753    -0.39800
loop_ 
_geom_bond_atom_site_label_1 
_geom_bond_atom_site_label_2 
_geom_bond_distance 
_geom_bond_site_symmetry_2 
_ccdc_geom_bond_type 
O1           Cu9   2.027       .  S
O1           C11   1.279       .  A
O2           Cu9   2.030       .  S
O2           C12   1.280       .  A
O3           Cu9   1.985       .  S
O3           C13   1.277       .  A
O4           Cu9   1.985       .  S
O4           C14   1.277       .  A
O5          Cu10   2.055       .  S
O5           C14   1.282       .  A
O6          Cu10   2.063       .  S
O6           C13   1.283       .  A
O7          Cu10   1.978       .  S
O7           C12   1.276       .  A
O8          Cu10   1.984       .  S
O8           C11   1.275       .  A
Cu9         Cu10   2.368       .  S
C11         C618   1.472       .  S
C12         C663   1.482       .  S
C13         C646   1.495       .  S
C14         C632   1.493       .  S
O15         Cu23   2.036       .  S
O15          C25   1.280       .  A
O16         Cu23   2.033       .  S
O16          C26   1.281       .  A
O17         Cu23   1.997       .  S
O17          C27   1.275       .  A
O18         Cu23   1.998       .  S
O18          C28   1.277       .  A
O19         Cu24   2.061       .  S
O19          C28   1.284       .  A
O20         Cu24   2.065       .  S
O20          C27   1.285       .  A
O21         Cu24   1.981       .  S
O21          C26   1.274       .  A
O22         Cu24   1.990       .  S
O22          C25   1.275       .  A
Cu23        Cu24   2.367       .  S
C25         C579   1.474       .  S
C26         C660   1.488       .  S
C27         C607   1.496       .  S
C28         C590   1.500       .  S
O29         Cu37   1.987       .  S
O29          C39   1.275       .  A
O30         Cu37   1.986       .  S
O30          C40   1.274       .  A
O31         Cu37   2.056       .  S
O31          C41   1.283       .  A
O32         Cu37   2.053       .  S
O32          C42   1.284       .  A
O33         Cu38   1.990       .  S
O33          C42   1.274       .  A
O34         Cu38   1.991       .  S
O34          C41   1.276       .  A
O35         Cu38   2.054       .  S
O35          C40   1.283       .  A
O36         Cu38   2.056       .  S
O36          C39   1.284       .  A
Cu37        Cu38   2.367       .  S
C39         C562   1.493       .  S
C40         C534   1.479       .  S
C41         C548   1.493       .  S
C42         C649   1.492       .  S
O43         Cu51   1.998       .  S
O43          C53   1.275       .  A
O44         Cu51   1.986       .  S
O44          C54   1.276       .  A
O45         Cu51   2.063       .  S
O45          C55   1.284       .  A
O46         Cu51   2.050       .  S
O46          C56   1.283       .  A
O47         Cu52   2.000       .  S
O47          C56   1.277       .  A
O48         Cu52   1.996       .  S
O48          C55   1.277       .  A
O49         Cu52   2.050       .  S
O49          C54   1.283       .  A
O50         Cu52   2.050       .  S
O50          C53   1.282       .  A
Cu51        Cu52   2.365       .  S
C53         C506   1.482       .  S
C54         C565   1.497       .  S
C55         C604   1.496       .  S
C56         C523   1.497       .  S
O57         Cu65   2.004       .  S
O57          C67   1.278       .  A
O58         Cu65   2.007       .  S
O58          C68   1.276       .  A
O59         Cu65   2.036       .  S
O59          C69   1.282       .  A
O60         Cu65   2.032       .  S
O60          C70   1.280       .  A
O61         Cu66   1.979       .  S
O61          C70   1.274       .  A
O62         Cu66   1.978       .  S
O62          C69   1.274       .  A
O63         Cu66   2.049       .  S
O63          C68   1.283       .  A
O64         Cu66   2.041       .  S
O64          C67   1.282       .  A
Cu65        Cu66   2.369       .  S
C67         C520   1.493       .  S
C68         C478   1.490       .  S
C69         C492   1.484       .  S
C70         C464   1.472       .  S
O71         Cu79   1.996       .  S
O71          C81   1.276       .  A
O72         Cu79   1.990       .  S
O72          C82   1.276       .  A
O73         Cu79   2.036       .  S
O73          C83   1.280       .  A
O74         Cu79   2.036       .  S
O74          C84   1.281       .  A
O75         Cu80   1.994       .  S
O75          C84   1.275       .  A
O76         Cu80   1.980       .  S
O76          C83   1.276       .  A
O77         Cu80   2.054       .  S
O77          C82   1.282       .  A
O78         Cu80   2.039       .  S
O78          C81   1.282       .  A
Cu79        Cu80   2.369       .  S
C81         C551   1.492       .  S
C82         C453   1.483       .  S
C83         C495   1.489   1_545  S
C84         C436   1.476       .  S
O85         Cu93   2.052       .  S
O85          C95   1.284       .  A
O86         Cu93   2.060       .  S
O86          C96   1.284       .  A
O87         Cu93   1.965       .  S
O87          C97   1.273       .  A
O88         Cu93   1.988       .  S
O88          C98   1.274       .  A
O89         Cu94   2.052       .  S
O89          C98   1.284       .  A
O90         Cu94   2.048       .  S
O90          C97   1.282       .  A
O91         Cu94   1.999       .  S
O91          C96   1.276       .  A
O92         Cu94   2.004       .  S
O92          C95   1.277       .  A
Cu93        Cu94   2.367       .  S
C95         C593   1.497       .  S
C96         C481   1.491       .  S
C97         C422   1.486       .  S
C98         C408   1.483       .  S
O99        Cu107   2.043       .  S
O99         C109   1.281       .  A
O100       Cu107   2.045       .  S
O100        C110   1.282       .  A
O101       Cu107   2.006       .  S
O101        C111   1.278       .  A
O102       Cu107   2.020       .  S
O102        C112   1.279       .  A
O103       Cu108   2.023       .  S
O103        C112   1.280       .  A
O104       Cu108   2.031       .  S
O104        C111   1.280       .  A
O105       Cu108   1.971       .  S
O105        C110   1.274       .  A
O106       Cu108   1.979       .  S
O106        C109   1.274       .  A
Cu107      Cu108   2.369       .  S
C109        C394   1.476       .  S
C110        C425   1.486       .  S
C111        C450   1.482       .  S
C112        C635   1.493       .  S
O113       Cu121   1.969       .  S
O113        C123   1.274       .  A
O114       Cu121   1.978       .  S
O114        C124   1.271       .  A
O115       Cu121   2.050       .  S
O115        C125   1.283       .  A
O116       Cu121   2.059       .  S
O116        C126   1.287       .  A
O117       Cu122   1.995       .  S
O117        C126   1.273       .  A
O118       Cu122   1.975       .  S
O118        C125   1.272       .  A
O119       Cu122   2.051       .  S
O119        C124   1.286       .  A
O120       Cu122   2.056       .  S
O120        C123   1.282       .  A
Cu121      Cu122   2.366       .  S
C123        C621   1.480       .  S
C124        C380   1.486   1_455  S
C125        C366   1.486       .  S
C126        C352   1.501       .  S
O127       Cu135   1.985       .  S
O127        C137   1.272       .  A
O128       Cu135   1.972       .  S
O128        C138   1.272       .  A
O129       Cu135   2.074       .  S
O129        C139   1.286       .  A
O130       Cu135   2.067       .  S
O130        C140   1.286       .  A
O131       Cu136   1.975       .  S
O131        C140   1.271       .  A
O132       Cu136   1.989       .  S
O132        C139   1.274       .  A
O133       Cu136   2.052       .  S
O133        C138   1.282       .  A
O134       Cu136   2.049       .  S
O134        C137   1.286       .  A
Cu135      Cu136   2.366       .  S
C137        C383   1.494       .  S
C138        C576   1.474       .  S
C139        C324   1.495       .  S
C140        C341   1.493       .  S
O141       Cu149   2.051       .  S
O141        C151   1.283       .  A
O142       Cu149   2.048       .  S
O142        C152   1.283       .  A
O143       Cu149   1.982       .  S
O143        C153   1.277       .  A
O144       Cu149   1.989       .  S
O144        C154   1.274       .  A
O145       Cu150   2.031       .  S
O145        C154   1.283       .  A
O146       Cu150   2.049       .  S
O146        C153   1.281       .  A
O147       Cu150   1.977       .  S
O147        C152   1.274       .  A
O148       Cu150   1.992       .  S
O148        C151   1.274       .  A
Cu149      Cu150   2.368       .  S
C151        C537   1.480       .  S
C152        C310   1.487   1_455  S
C153        C369   1.486       .  S
C154        C296   1.488       .  S
O155       Cu163   2.054       .  S
O155        C165   1.282       .  A
O156       Cu163   2.052       .  S
O156        C166   1.285       .  A
O157       Cu163   1.985       .  S
O157        C167   1.274       .  A
O158       Cu163   1.980       .  S
O158        C168   1.274       .  A
O159       Cu164   2.047       .  S
O159        C168   1.283       .  A
O160       Cu164   2.057       .  S
O160        C167   1.282       .  A
O161       Cu164   2.008       .  S
O161        C166   1.276       .  A
O162       Cu164   1.986       .  S
O162        C165   1.277       .  A
Cu163      Cu164   2.366       .  S
C165        C338   1.492       .  S
C166        C282   1.498       .  S
C167        C509   1.480       .  S
C168        C313   1.493       .  S
O169       Cu177   2.052       .  S
O169        C179   1.283       .  A
O170       Cu177   2.051       .  S
O170        C180   1.286       .  A
O171       Cu177   1.974       .  S
O171        C181   1.273       .  A
O172       Cu177   1.970       .  S
O172        C182   1.272       .  A
O173       Cu178   2.048       .  S
O173        C182   1.284       .  A
O174       Cu178   2.054       .  S
O174        C181   1.283       .  A
O175       Cu178   2.000       .  S
O175        C180   1.274       .  A
O176       Cu178   1.973       .  S
O176        C179   1.272       .  A
Cu177      Cu178   2.366       .  S
C179        C254   1.487       .  S
C180        C285   1.498       .  S
C181        C439   1.478       .  S
C182        C268   1.485       .  S
O183       Cu191   2.045       .  S
O183        C193   1.280       .  A
O184       Cu191   2.037       .  S
O184        C194   1.281       .  A
O185       Cu191   1.985       .  S
O185        C195   1.278       .  A
O186       Cu191   2.005       .  S
O186        C196   1.276       .  A
O187       Cu192   2.026       .  S
O187        C196   1.282       .  A
O188       Cu192   2.035       .  S
O188        C195   1.278       .  A
O189       Cu192   1.974       .  S
O189        C194   1.275       .  A
O190       Cu192   1.978       .  S
O190        C193   1.275       .  A
Cu191      Cu192   2.370       .  S
C193        C467   1.476       .  S
C194        C271   1.488   1_455  S
C195        C240   1.482       .  S
C196        C299   1.485       .  S
O197       Cu205   2.005       .  S
O197        C207   1.277       .  A
O198       Cu205   1.977       .  S
O198        C208   1.276       .  A
O199       Cu205   2.037       .  S
O199        C209   1.282       .  A
O200       Cu205   2.044       .  S
O200        C210   1.280       .  A
O201       Cu206   1.993       .  S
O201        C210   1.277       .  A
O202       Cu206   1.989       .  S
O202        C209   1.274       .  A
O203       Cu206   2.053       .  S
O203        C208   1.281       .  A
O204       Cu206   2.053       .  S
O204        C207   1.284       .  A
Cu205      Cu206   2.366       .  S
C207        C327   1.504       .  S
C208        C257   1.485       .  S
C209        C226   1.490       .  S
C210        C397   1.479       .  S
O211       Cu219   1.983       .  S
O211        C221   1.274       .  A
O212       Cu219   1.985       .  S
O212        C222   1.271       .  A
O213       Cu219   2.049       .  S
O213        C223   1.284       .  A
O214       Cu219   2.061       .  S
O214        C224   1.287       .  A
O215       Cu220   1.996       .  S
O215        C224   1.273       .  A
O216       Cu220   1.969       .  S
O216        C223   1.271       .  A
O217       Cu220   2.047       .  S
O217        C222   1.285       .  A
O218       Cu220   2.063       .  S
O218        C221   1.284       .  A
Cu219      Cu220   2.368       .  S
C221        C411   1.487       .  S
C222        C229   1.480   1_455  S
C223        C243   1.485       .  S
C224        C355   1.494       .  S
C225        C226   1.405       .  A
C225        C230   1.405       .  A
C225        H232   1.088       .  S
C226        C227   1.418       .  A
C227        C228   1.397       .  A
C227        N234   1.428       .  S
C228        C229   1.396       .  A
C228        H233   1.089   1_655  S
C229        C230   1.416       .  A
C230        N231   1.430       .  S
N231        O235   1.262       .  A
N231        O236   1.262       .  A
N234        O238   1.262       .  A
N234        O237   1.262       .  A
C239        C240   1.397       .  A
C239        C244   1.388       .  A
C239        H246   1.092       .  S
C240        C241   1.415       .  A
C241        C242   1.410       .  A
C241        N248   1.428       .  S
C242        C243   1.407       .  A
C242        H247   1.091       .  S
C243        C244   1.418       .  A
C244        N245   1.431       .  S
N245        O249   1.261       .  A
N245        O250   1.262       .  A
N248        O252   1.262       .  A
N248        O251   1.262       .  A
C253        C254   1.409       .  A
C253        C258   1.412       .  A
C253        H260   1.086       .  S
C254        C255   1.418       .  A
C255        C256   1.389       .  A
C255        N262   1.432       .  S
C256        C257   1.398       .  A
C256        H261   1.087       .  S
C257        C258   1.413       .  A
C258        N259   1.427       .  S
N259        O263   1.262       .  A
N259        O264   1.262       .  A
N262        O266   1.262       .  A
N262        O265   1.262       .  A
C267        C268   1.409       .  A
C267        C272   1.401       .  A
C267        H274   1.093       .  S
C268        C269   1.407       .  A
C269        C270   1.396       .  A
C269        N276   1.427       .  S
C270        C271   1.408       .  A
C270        H275   1.092       .  S
C271        C272   1.412       .  A
C272        N273   1.429   1_655  S
N273        O277   1.262       .  A
N273        O278   1.262       .  A
N276        O280   1.262       .  A
N276        O279   1.261       .  A
C281        C282   1.403       .  A
C281        C286   1.406       .  A
C281        H288   1.089       .  S
C282        C283   1.419       .  A
C283        C284   1.404       .  A
C283        N290   1.428       .  S
C284        C285   1.402       .  A
C284        H289   1.089       .  S
C285        C286   1.421       .  A
C286        N287   1.429       .  S
N287        O291   1.262       .  A
N287        O292   1.261       .  A
N290        O294   1.262       .  A
N290        O293   1.262       .  A
C295        C296   1.403       .  A
C295        C300   1.401       .  A
C295        H302   1.092       .  S
C296        C297   1.418       .  A
C297        C298   1.399       .  A
C297        N304   1.429       .  S
C298        C299   1.401       .  A
C298        H303   1.092       .  S
C299        C300   1.415       .  A
C300        N301   1.428       .  S
N301        O305   1.262       .  A
N301        O306   1.262       .  A
N304        O308   1.262       .  A
N304        O307   1.262       .  A
C309        C310   1.408       .  A
C309        C314   1.400       .  A
C309        H316   1.078       .  S
C310        C311   1.409       .  A
C311        C312   1.403       .  A
C311        N318   1.428   1_655  S
C312        C313   1.412       .  A
C312        H317   1.077       .  S
C313        C314   1.411       .  A
C314        N315   1.428       .  S
N315        O319   1.262       .  A
N315        O320   1.262       .  A
N318        O322   1.262       .  A
N318        O321   1.262       .  A
C323        C324   1.407       .  A
C323        C328   1.404       .  A
C323        H330   1.088       .  S
C324        C325   1.410       .  A
C325        C326   1.409       .  A
C325        N332   1.428       .  S
C326        C327   1.413       .  A
C326        H331   1.087       .  S
C327        C328   1.415       .  A
C328        N329   1.428       .  S
N329        O333   1.262       .  A
N329        O334   1.262       .  A
N332        O336   1.262       .  A
N332        O335   1.262       .  A
C337        C338   1.402       .  A
C337        C342   1.394   1_556  A
C337        H344   1.089       .  S
C338        C339   1.415       .  A
C339        C340   1.412   1_556  A
C339        N346   1.427       .  S
C340        C341   1.407       .  A
C340        H345   1.089       .  S
C341        C342   1.418       .  A
C342        N343   1.431       .  S
N343        O347   1.261       .  A
N343        O348   1.262       .  A
N346        O350   1.262       .  A
N346        O349   1.262       .  A
C351        C352   1.404       .  A
C351        C356   1.406       .  A
C351        H358   1.084       .  S
C352        C353   1.422       .  A
C353        C354   1.404       .  A
C353        N360   1.428       .  S
C354        C355   1.399       .  A
C354        H359   1.085       .  S
C355        C356   1.419       .  A
C356        N357   1.429       .  S
N357        O361   1.262       .  A
N357        O362   1.262       .  A
N360        O364   1.262       .  A
N360        O363   1.262       .  A
C365        C366   1.407       .  A
C365        C370   1.411   1_554  A
C365        H372   1.089       .  S
C366        C367   1.417       .  A
C367        C368   1.391   1_554  A
C367        N374   1.431       .  S
C368        C369   1.399       .  A
C368        H373   1.090       .  S
C369        C370   1.415       .  A
C370        N371   1.427       .  S
N371        O375   1.262       .  A
N371        O376   1.262       .  A
N374        O378   1.262       .  A
N374        O377   1.261       .  A
C379        C380   1.398       .  A
C379        C384   1.401       .  A
C379        H386   1.085   1_655  S
C380        C381   1.417       .  A
C381        C382   1.402       .  A
C381        N388   1.429       .  S
C382        C383   1.403       .  A
C382        H387   1.084       .  S
C383        C384   1.423       .  A
C384        N385   1.428       .  S
N385        O389   1.262       .  A
N385        O390   1.262       .  A
N388        O392   1.262       .  A
N388        O391   1.262       .  A
C393        C394   1.402       .  A
C393        C398   1.408       .  A
C393        H400   1.089       .  S
C394        C395   1.409       .  A
C395        C396   1.395       .  A
C395        N402   1.427       .  S
C396        C397   1.399       .  A
C396        H401   1.089       .  S
C397        C398   1.415       .  A
C398        N399   1.428       .  S
N399        O403   1.262       .  A
N399        O404   1.262       .  A
N402        O406   1.262       .  A
N402        O405   1.262       .  A
C407        C408   1.401       .  A
C407        C412   1.407       .  A
C407        H414   1.088       .  S
C408        C409   1.412       .  A
C409        C410   1.400       .  A
C409        N416   1.428       .  S
C410        C411   1.403       .  A
C410        H415   1.089       .  S
C411        C412   1.414       .  A
C412        N413   1.424       .  S
N413        O417   1.262       .  A
N413        O418   1.261       .  A
N416        O420   1.262       .  A
N416        O419   1.262       .  A
C421        C422   1.408       .  A
C421        C426   1.396   1_565  A
C421        H428   1.097       .  S
C422        C423   1.410       .  A
C423        C424   1.399       .  A
C423        N430   1.428       .  S
C424        C425   1.409   1_565  A
C424        H429   1.097       .  S
C425        C426   1.410       .  A
C426        N427   1.428       .  S
N427        O431   1.262       .  A
N427        O432   1.262       .  A
N430        O434   1.262       .  A
N430        O433   1.262       .  A
C435        C436   1.398       .  A
C435        C440   1.403       .  A
C435        H442   1.088       .  S
C436        C437   1.410       .  A
C437        C438   1.399       .  A
C437        N444   1.426       .  S
C438        C439   1.401       .  A
C438        H443   1.088       .  S
C439        C440   1.412       .  A
C440        N441   1.423       .  S
N441        O445   1.262       .  A
N441        O446   1.262       .  A
N444        O448   1.262       .  A
N444        O447   1.262       .  A
C449        C450   1.406       .  A
C449        C454   1.410       .  A
C449        H456   1.090       .  S
C450        C451   1.409       .  A
C451        C452   1.395       .  A
C451        N458   1.428       .  S
C452        C453   1.401       .  A
C452        H457   1.090       .  S
C453        C454   1.415       .  A
C454        N455   1.429       .  S
N455        O459   1.262       .  A
N455        O460   1.262       .  A
N458        O462   1.262       .  A
N458        O461   1.262       .  A
C463        C464   1.402       .  A
C463        C468   1.406       .  A
C463        H470   1.088       .  S
C464        C465   1.409       .  A
C465        C466   1.393       .  A
C465        N472   1.428       .  S
C466        C467   1.400       .  A
C466        H471   1.089       .  S
C467        C468   1.412       .  A
C468        N469   1.427       .  S
N469        O473   1.262       .  A
N469        O474   1.262       .  A
N472        O476   1.262       .  A
N472        O475   1.262       .  A
C477        C478   1.405       .  A
C477        C482   1.410       .  A
C477        H484   1.087       .  S
C478        C479   1.413       .  A
C479        C480   1.402       .  A
C479        N486   1.429       .  S
C480        C481   1.404       .  A
C480        H485   1.088       .  S
C481        C482   1.415       .  A
C482        N483   1.428       .  S
N483        O487   1.262       .  A
N483        O488   1.262       .  A
N486        O490   1.262       .  A
N486        O489   1.262       .  A
C491        C492   1.408       .  A
C491        C496   1.401       .  A
C491        H498   1.093       .  S
C492        C493   1.408       .  A
C493        C494   1.395       .  A
C493        N500   1.428       .  S
C494        C495   1.408       .  A
C494        H499   1.092       .  S
C495        C496   1.414       .  A
C496        N497   1.429   1_565  S
N497        O501   1.262       .  A
N497        O502   1.262       .  A
N500        O504   1.262       .  A
N500        O503   1.262       .  A
C505        C506   1.403       .  A
C505        C510   1.408       .  A
C505        H512   1.085       .  S
C506        C507   1.411       .  A
C507        C508   1.399       .  A
C507        N514   1.427       .  S
C508        C509   1.401       .  A
C508        H513   1.084       .  S
C509        C510   1.413       .  A
C510        N511   1.428       .  S
N511        O515   1.262       .  A
N511        O516   1.262       .  A
N514        O518   1.262       .  A
N514        O517   1.261       .  A
C519        C520   1.407       .  A
C519        C524   1.404       .  A
C519        H526   1.084       .  S
C520        C521   1.412       .  A
C521        C522   1.403       .  A
C521        N528   1.428       .  S
C522        C523   1.409       .  A
C522        H527   1.084       .  S
C523        C524   1.414       .  A
C524        N525   1.427       .  S
N525        O529   1.261       .  A
N525        O530   1.262       .  A
N528        O532   1.262       .  A
N528        O531   1.261       .  A
C533        C534   1.400       .  A
C533        C538   1.400       .  A
C533        H540   1.092       .  S
C534        C535   1.412       .  A
C535        C536   1.406       .  A
C535        N542   1.425       .  S
C536        C537   1.401       .  A
C536        H541   1.092       .  S
C537        C538   1.412       .  A
C538        N539   1.428       .  S
N539        O543   1.262       .  A
N539        O544   1.262       .  A
N542        O546   1.262       .  A
N542        O545   1.262       .  A
C547        C548   1.407       .  A
C547        C552   1.399       .  A
C547        H554   1.087       .  S
C548        C549   1.413       .  A
C549        C550   1.406       .  A
C549        N556   1.428       .  S
C550        C551   1.409       .  A
C550        H555   1.087       .  S
C551        C552   1.411       .  A
C552        N553   1.428       .  S
N553        O557   1.261       .  A
N553        O558   1.262       .  A
N556        O560   1.262       .  A
N556        O559   1.262       .  A
C561        C562   1.409   1_565  A
C561        C566   1.404       .  A
C561        H568   1.094       .  S
C562        C563   1.410   1_545  A
C563        C564   1.400       .  A
C563        N570   1.428   1_565  S
C564        C565   1.409       .  A
C564        H569   1.093       .  S
C565        C566   1.414       .  A
C566        N567   1.429       .  S
N567        O571   1.262       .  A
N567        O572   1.262       .  A
N570        O574   1.262       .  A
N570        O573   1.262       .  A
C575        C576   1.401       .  A
C575        C580   1.397       .  A
C575        H582   1.089       .  S
C576        C577   1.412       .  A
C577        C578   1.405       .  A
C577        N584   1.427       .  S
C578        C579   1.402       .  A
C578        H583   1.090       .  S
C579        C580   1.409       .  A
C580        N581   1.429       .  S
N581        O585   1.262       .  A
N581        O586   1.262       .  A
N584        O588   1.262       .  A
N584        O587   1.262       .  A
C589        C590   1.409       .  A
C589        C594   1.403       .  A
C589        H596   1.085       .  S
C590        C591   1.414       .  A
C591        C592   1.408       .  A
C591        N598   1.428       .  S
C592        C593   1.410       .  A
C592        H597   1.085       .  S
C593        C594   1.411       .  A
C594        N595   1.428       .  S
N595        O599   1.262       .  A
N595        O600   1.261       .  A
N598        O602   1.262       .  A
N598        O601   1.262       .  A
C603        C604   1.403       .  A
C603        C608   1.399   1_556  A
C603        H610   1.087       .  S
C604        C605   1.416       .  A
C605        C606   1.414   1_556  A
C605        N612   1.428       .  S
C606        C607   1.408       .  A
C606        H611   1.087       .  S
C607        C608   1.414       .  A
C608        N609   1.429       .  S
N609        O613   1.262       .  A
N609        O614   1.262       .  A
N612        O616   1.262       .  A
N612        O615   1.262       .  A
C617        C618   1.400       .  A
C617        C622   1.406       .  A
C617        H624   1.087       .  S
C618        C619   1.408       .  A
C619        C620   1.393       .  A
C619        N626   1.427       .  S
C620        C621   1.402       .  A
C620        H625   1.087       .  S
C621        C622   1.413       .  A
C622        N623   1.424       .  S
N623        O627   1.262       .  A
N623        O628   1.261       .  A
N626        O630   1.262       .  A
N626        O629   1.261       .  A
C631        C632   1.404       .  A
C631        C636   1.395       .  A
C631        H638   1.084       .  S
C632        C633   1.415       .  A
C633        C634   1.410       .  A
C633        N640   1.428       .  S
C634        C635   1.410       .  A
C634        H639   1.084       .  S
C635        C636   1.411       .  A
C636        N637   1.427       .  S
N637        O641   1.262       .  A
N637        O642   1.261       .  A
N640        O644   1.261       .  A
N640        O643   1.262       .  A
C645        C646   1.402       .  A
C645        C650   1.395   1_554  A
C645        H652   1.088       .  S
C646        C647   1.416       .  A
C647        C648   1.412   1_554  A
C647        N654   1.427       .  S
C648        C649   1.407       .  A
C648        H653   1.087       .  S
C649        C650   1.416       .  A
C650        N651   1.429       .  S
N651        O655   1.261       .  A
N651        O656   1.262       .  A
N654        O658   1.262       .  A
N654        O657   1.262       .  A
C659        C660   1.410       .  A
C659        C664   1.400   1_565  A
C659        H666   1.094       .  S
C660        C661   1.411       .  A
C661        C662   1.395       .  A
C661        N668   1.428       .  S
C662        C663   1.405   1_565  A
C662        H667   1.095       .  S
C663        C664   1.410       .  A
C664        N665   1.429       .  S
N665        O669   1.262       .  A
N665        O670   1.262       .  A
N668        O672   1.262       .  A
N668        O671   1.262       .  A
