geometry optimzed in LAMMPS
_audit_creation_date              2020-12-01 
_audit_creation_method            'lammps2cif' 
_symmetry_space_group_name_H-M    'P1' 
_symmetry_Int_Tables_number       1 
_symmetry_cell_setting            triclinic 
loop_ 
_symmetry_equiv_pos_as_xyz 
  x,y,z 
_cell_length_a                    50.70255496 
_cell_length_b                    51.38977712448742 
_cell_length_c                    27.604643044581195 
_cell_angle_alpha                 89.91596185171254 
_cell_angle_beta                  89.9276642705342 
_cell_angle_gamma                 120.99278556229935 
loop_ 
_atom_site_label 
_atom_site_type_symbol 
_atom_site_fract_x 
_atom_site_fract_y 
_atom_site_fract_z 
_atom_site_charge 
O1          O  0.36533561  0.22876272  0.30568481    -0.57000
C2          C  0.38336946  0.23775516  0.16527324     0.75600
O3          O  0.34094675  0.27579067  0.21845628    -0.58100
C4          C  0.35086957  0.23687024  0.33304499     0.75600
C5          C  0.44464133  0.30475207  0.29042589     0.78000
Cd6        Cd  0.38373879  0.27155946  0.24900217     1.37500
O7          O  0.36224318  0.22595834  0.19687640    -0.57000
O8          O  0.43475903  0.28041409  0.26682937    -0.55800
C9          C  0.35606935  0.30399271  0.20978318     0.78000
O10         O  0.42655138  0.31480562  0.29332466    -0.58200
O11         O  0.40399388  0.26521428  0.17205464    -0.56600
O12         O  0.35126908  0.26081612  0.32105768    -0.56600
O13         O  0.38454533  0.31750293  0.21927103    -0.55800
O14         O  0.21833938  0.35486394  0.03823511    -0.57000
C15         C  0.23077652  0.39442416  0.16566184     0.75600
O16         O  0.30827643  0.39026323  0.11817213    -0.58100
C17         C  0.23211237  0.35746091  0.99864830     0.75600
C18         C  0.29547124  0.45254033  0.04600863     0.78000
Cd19       Cd  0.26413094  0.39161883  0.08370306     1.37500
O20         O  0.21728804  0.37988022  0.12773366    -0.57000
O21         O  0.26771502  0.43900510  0.05973913    -0.55800
C22         C  0.29411934  0.36181978  0.12471344     0.78000
O23         O  0.30938830  0.43813207  0.05127051    -0.58200
O24         O  0.25983668  0.40771352  0.16548238    -0.56600
O25         O  0.26088213  0.37584834  0.99841268    -0.56600
O26         O  0.26639981  0.34734795  0.11110690    -0.55800
O27         O  0.35998653  0.15327773  0.97247036    -0.57000
C28         C  0.34904797  0.12971514  0.83335558     0.75600
O29         O  0.43056267  0.13370097  0.89302320    -0.58100
C30         C  0.38347647  0.16917049  0.99825529     0.75600
C31         C  0.35630322  0.07268025  0.95926696     0.78000
Cd32       Cd  0.38336396  0.13281737  0.91798261     1.37500
O33         O  0.34706673  0.14144344  0.87244969    -0.57000
O34         O  0.34116363  0.08063172  0.93325088    -0.55800
C35         C  0.44319582  0.15967375  0.87324304     0.78000
O36         O  0.38435440  0.09249887  0.96535356    -0.58200
O37         O  0.36674803  0.11917813  0.83364596    -0.56600
O38         O  0.40756696  0.16932010  0.98575401    -0.56600
O39         O  0.42842326  0.17336707  0.87567179    -0.55800
O40         O  0.12971164  0.29323275  0.70919907    -0.57000
C41         C  0.16374806  0.28471508  0.83242226     0.75600
O42         O  0.08213820  0.20421534  0.78655872    -0.58100
C43         C  0.12422947  0.28227423  0.66690837     0.75600
C44         C  0.15620704  0.21705438  0.71377529     0.78000
Cd45       Cd  0.12756459  0.24949097  0.75000415     1.37500
O46         O  0.17020089  0.29536034  0.78981410    -0.57000
O47         O  0.17163440  0.24396734  0.72948946    -0.55800
C48         C  0.06532112  0.21577704  0.78772711     0.78000
O49         O  0.12725651  0.20468896  0.71620640    -0.58200
O50         O  0.14129003  0.25780371  0.83614500    -0.56600
O51         O  0.12038641  0.25602405  0.66280847    -0.56600
O52         O  0.07717090  0.24231767  0.77056144    -0.55800
O53         O  0.29407290  0.15915348  0.53224152    -0.57000
C54         C  0.27980329  0.12783816  0.66618124     0.75600
O55         O  0.20289589  0.13267058  0.61088916    -0.58100
C56         C  0.28152741  0.16658404  0.49988905     0.75600
C57         C  0.21592904  0.06969633  0.54208875     0.78000
Cd58       Cd  0.24785628  0.13029834  0.58227785     1.37500
O59         O  0.29395805  0.14315432  0.62909520    -0.57000
O60         O  0.24480523  0.08493877  0.54703909    -0.55800
C61         C  0.21792466  0.16032777  0.62335531     0.78000
O62         O  0.20161454  0.08249838  0.55607842    -0.58200
O63         O  0.25073934  0.11324844  0.66428436    -0.56600
O64         O  0.25321150  0.15709033  0.50565181    -0.56600
O65         O  0.24658822  0.17407741  0.61547835    -0.55800
O66         O  0.16955254  0.38750403  0.37771217    -0.57000
C67         C  0.12417561  0.35122643  0.49990754     0.75600
O68         O  0.12797633  0.43284969  0.45514775    -0.58100
C69         C  0.16386506  0.39374744  0.33611386     0.75600
C70         C  0.06561168  0.35993088  0.37953766     0.78000
Cd71       Cd  0.12705343  0.38851514  0.41916347     1.37500
O72         O  0.13562086  0.35082022  0.45943517    -0.57000
O73         O  0.07943683  0.34564148  0.38677756    -0.55800
C74         C  0.15699017  0.44953350  0.45625113     0.78000
O75         O  0.08008012  0.38761884  0.39174887    -0.58200
O76         O  0.11374457  0.36884650  0.50290864    -0.56600
O77         O  0.14121593  0.39763119  0.33310196    -0.56600
O78         O  0.17180099  0.43794626  0.43945214    -0.55800
C79         C  0.17254101  0.48060235  0.47701747     0.00700
C80         C  0.15472498  0.48978933  0.50255557    -0.11200
C81         C  0.16812945  0.01848291  0.52404662     0.02900
C82         C  0.20023558  0.03883893  0.52041929     0.00600
C83         C  0.21807254  0.02964913  0.49487342    -0.11100
C84         C  0.20464716  0.00105972  0.47300498     0.02800
H85         H  0.13011859  0.47438034  0.50622183     0.15800
H86         H  0.24268977  0.04505079  0.49129820     0.15800
C87         C  0.22446731  0.99384452  0.44591455     0.37400
C88         C  0.14824751  0.02596163  0.55022096     0.37300
N89         N  0.24032082  0.98810832  0.42406585    -0.42900
N90         N  0.13217828  0.03183855  0.57107814    -0.42900
C91         C  0.20266607  0.17536725  0.64663280     0.00700
C92         C  0.17133454  0.15757030  0.65902207    -0.11200
C93         C  0.15576588  0.17026031  0.68158144     0.02900
C94         C  0.17156501  0.20165065  0.69230662     0.00600
C95         C  0.20297477  0.21936395  0.68050299    -0.11100
C96         C  0.21852332  0.20673012  0.65782189     0.02800
H97         H  0.15881186  0.13344932  0.65128462     0.15800
H98         H  0.21550413  0.24350660  0.68822482     0.15800
C99         C  0.25058761  0.22688166  0.64597679     0.37400
C100        C  0.12374860  0.15021010  0.69375607     0.37300
N101        N  0.27625741  0.24323180  0.63656716    -0.42900
N102        N  0.09810738  0.13389445  0.70337281    -0.42900
C103        C  0.12291330  0.29935010  0.62437515     0.00700
C104        C  0.12865490  0.29213872  0.57797559    -0.11200
C105        C  0.12903688  0.30845413  0.53695773     0.02900
C106        C  0.12331945  0.33255030  0.54179671     0.00600
C107        C  0.11679269  0.33920433  0.58807360    -0.11100
C108        C  0.11651345  0.32295990  0.62904994     0.02800
H109        H  0.13337631  0.27391334  0.57372668     0.15800
H110        H  0.11205038  0.35741546  0.59248828     0.15800
C111        C  0.10868093  0.33050083  0.67514505     0.37400
C112        C  0.13504394  0.29965456  0.49046505     0.37300
N113        N  0.10229472  0.33642790  0.71209181    -0.42900
N114        N  0.13984350  0.29273487  0.45308725    -0.42900
C115        C  0.47375533  0.17330795  0.84910005     0.00700
C116        C  0.49261472  0.16131432  0.85910521    -0.11200
C117        C  0.02226970  0.17429001  0.83928828     0.02900
C118        C  0.03356422  0.19971203  0.80804882     0.00600
C119        C  0.01430496  0.21106369  0.79693214    -0.11100
C120        C  0.48478066  0.19822075  0.81685618     0.02800
H121        H  0.48452773  0.14218598  0.88361268     0.15800
H122        H  0.02236733  0.23026004  0.77255849     0.15800
C123        C  0.46639423  0.21102985  0.80272310     0.37400
C124        C  0.04087466  0.16179657  0.85371337     0.37300
N125        N  0.45184479  0.22144597  0.79114819    -0.42900
N126        N  0.05564859  0.15171391  0.86573283    -0.42900
C127        C  0.29658028  0.12716520  0.70929325     0.00700
C128        C  0.32452454  0.12813510  0.70264721    -0.11200
C129        C  0.34183176  0.12851671  0.74239724     0.02900
C130        C  0.33132271  0.12830200  0.78993688     0.00600
C131        C  0.30336727  0.12736256  0.79645606    -0.11100
C132        C  0.28591077  0.12662752  0.75672071     0.02800
H133        H  0.33285676  0.12866241  0.66647405     0.15800
H134        H  0.29514610  0.12726990  0.83264645     0.15800
C135        C  0.25798503  0.12688389  0.76582735     0.37400
C136        C  0.37086812  0.13052250  0.73305546     0.37300
N137        N  0.23568968  0.12720705  0.77328834    -0.42900
N138        N  0.39415310  0.13222044  0.72538143    -0.42900
C139        C  0.21367333  0.39548436  0.20844276     0.00700
C140        C  0.22851558  0.40327110  0.25361066    -0.11200
C141        C  0.21309136  0.40345396  0.29557377     0.02900
C142        C  0.18200430  0.39557358  0.29283824     0.00600
C143        C  0.16749417  0.38878128  0.24749532    -0.11100
C144        C  0.18292108  0.38870574  0.20552264     0.02800
H145        H  0.25229453  0.40902755  0.25634815     0.15800
H146        H  0.14373843  0.38308412  0.24482869     0.15800
C147        C  0.16672283  0.38236113  0.16003369     0.37400
C148        C  0.23015800  0.41291099  0.34037885     0.37300
N149        N  0.15365383  0.37740326  0.12368287    -0.42900
N150        N  0.24411451  0.42074531  0.37600658    -0.42900
C151        C  0.31073524  0.48339435  0.02438715     0.00700
C152        C  0.34301262  0.00117069  0.02427455    -0.11200
C153        C  0.35846657  0.03020956  0.00340126     0.02900
C154        C  0.34150662  0.04201524  0.98172335     0.00600
C155        C  0.30921924  0.02410721  0.98166759    -0.11100
C156        C  0.29379676  0.49518576  0.00265637     0.02800
H157        H  0.35630151  0.99237648  0.04064653     0.15800
H158        H  0.29580798  0.03270418  0.96516709     0.15800
C159        C  0.26060861  0.47787049  0.99972621     0.37400
C160        C  0.39168442  0.04691837  0.00400512     0.37300
N161        N  0.23402958  0.46395733  0.99733750    -0.42900
N162        N  0.41831019  0.06028143  0.00444084    -0.42900
C163        C  0.18131832  0.30288708  0.87543491     0.00700
C164        C  0.20844064  0.33118020  0.86827180    -0.11200
C165        C  0.22533261  0.34942946  0.90762166     0.02900
C166        C  0.21528567  0.33939408  0.95547835     0.00600
C167        C  0.18817045  0.31131236  0.96268623    -0.11100
C168        C  0.17123114  0.29310632  0.92353111     0.02800
H169        H  0.21636595  0.33927625  0.83186644     0.15800
H170        H  0.18016877  0.30343156  0.99916014     0.15800
C171        C  0.14323645  0.26486854  0.93434251     0.37400
C172        C  0.25195186  0.37895221  0.89769830     0.37300
N173        N  0.12076725  0.24229351  0.94309291    -0.42900
N174        N  0.27315016  0.40270755  0.88985291    -0.42900
C175        C  0.33390582  0.21918324  0.37632718     0.00700
C176        C  0.30791797  0.22002204  0.39137267    -0.11200
C177        C  0.29045176  0.20309891  0.43126422     0.02900
C178        C  0.29920307  0.18511330  0.45751845     0.00600
C179        C  0.32568603  0.18488136  0.44315417    -0.11100
C180        C  0.34293003  0.20152015  0.40284618     0.02800
H181        H  0.30090124  0.23371398  0.37138350     0.15800
H182        H  0.33282331  0.17134653  0.46321996     0.15800
C183        C  0.37017481  0.20067276  0.39044703     0.37400
C184        C  0.26418364  0.20531237  0.44495936     0.37300
N185        N  0.39200841  0.20001018  0.38051729    -0.42900
N186        N  0.24314608  0.20713623  0.45586061    -0.42900
C187        C  0.03438840  0.34529320  0.35755767     0.00700
C188        C  0.01773796  0.36029890  0.35972844    -0.11200
C189        C  0.98852440  0.34778460  0.33852880     0.02900
C190        C  0.47548329  0.31973757  0.31377864     0.00600
C191        C  0.49210967  0.30474417  0.31197494    -0.11100
C192        C  0.02101963  0.31699500  0.33357316     0.02800
H193        H  0.02747795  0.38186065  0.37824917     0.15800
H194        H  0.48247640  0.28309870  0.29363122     0.15800
C195        C  0.03638344  0.29997497  0.32947839     0.37400
C196        C  0.47271118  0.36434872  0.34302154     0.37300
N197        N  0.04850811  0.28616732  0.32609096    -0.42900
N198        N  0.96010809  0.37767932  0.34687141    -0.42900
C199        C  0.34078481  0.31969006  0.18924061     0.00700
C200        C  0.30918311  0.30222219  0.17880802    -0.11200
C201        C  0.29342140  0.31517136  0.15808645     0.02900
C202        C  0.30934565  0.34659298  0.14714380     0.00600
C203        C  0.34082072  0.36418068  0.15835489    -0.11100
C204        C  0.35656688  0.35120037  0.17920972     0.02800
H205        H  0.29651922  0.27804021  0.18661562     0.15800
H206        H  0.35340508  0.38836576  0.15065907     0.15800
C207        C  0.38881454  0.37102627  0.18982753     0.37400
C208        C  0.26095729  0.29535449  0.14879547     0.37300
N209        N  0.41463929  0.38716669  0.19825665    -0.42900
N210        N  0.23497191  0.27919356  0.14154710    -0.42900
C211        C  0.38382925  0.22034807  0.12266005     0.00700
C212        C  0.35612815  0.19509769  0.10679909    -0.11200
C213        C  0.35536434  0.17829270  0.06628461     0.02900
C214        C  0.38285869  0.18647195  0.04089655     0.00600
C215        C  0.41062255  0.21132432  0.05738203    -0.11100
C216        C  0.41134616  0.22824543  0.09764956     0.02800
H217        H  0.33488471  0.18855916  0.12588137     0.15800
H218        H  0.43190225  0.21765863  0.03867668     0.15800
C219        C  0.44087544  0.25292105  0.11336964     0.37400
C220        C  0.32615433  0.15227704  0.05257596     0.37300
N221        N  0.46450213  0.27266283  0.12615762    -0.42900
N222        N  0.30282334  0.13140656  0.04141688    -0.42900
O223        O  0.36533560  0.72876257  0.30568492    -0.57000
C224        C  0.38336936  0.73775514  0.16527325     0.75600
O225        O  0.34094665  0.77579056  0.21845625    -0.58100
C226        C  0.35086948  0.73687002  0.33304506     0.75600
C227        C  0.44464119  0.80475202  0.29042596     0.78000
Cd228      Cd  0.38373868  0.77155936  0.24900231     1.37500
O229        O  0.36224299  0.72595833  0.19687627    -0.57000
O230        O  0.43475900  0.78041417  0.26682912    -0.55800
C231        C  0.35606922  0.80399262  0.20978334     0.78000
O232        O  0.42655115  0.81480545  0.29332506    -0.58200
O233        O  0.40399387  0.76521419  0.17205486    -0.56600
O234        O  0.35126895  0.76081588  0.32105775    -0.56600
O235        O  0.38454517  0.81750286  0.21927141    -0.55800
O236        O  0.21833939  0.85486371  0.03823498    -0.57000
C237        C  0.23077638  0.89442417  0.16566147     0.75600
O238        O  0.30827634  0.89026317  0.11817215    -0.58100
C239        C  0.23211235  0.85746081  0.99864813     0.75600
C240        C  0.29547125  0.95254022  0.04600823     0.78000
Cd241      Cd  0.26413090  0.89161876  0.08370284     1.37500
O242        O  0.21728794  0.87988036  0.12773316    -0.57000
O243        O  0.26771496  0.93900495  0.05973845    -0.55800
C244        C  0.29411927  0.86181968  0.12471325     0.78000
O245        O  0.30938834  0.93813203  0.05127047    -0.58200
O246        O  0.25983653  0.90771336  0.16548216    -0.56600
O247        O  0.26088210  0.87584837  0.99841242    -0.56600
O248        O  0.26639980  0.84734786  0.11110649    -0.55800
O249        O  0.35998639  0.65327744  0.97247061    -0.57000
C250        C  0.34904815  0.62971527  0.83335560     0.75600
O251        O  0.43056275  0.63370086  0.89302350    -0.58100
C252        C  0.38347640  0.66917051  0.99825521     0.75600
C253        C  0.35630321  0.57268028  0.95926716     0.78000
Cd254      Cd  0.38336400  0.63281737  0.91798268     1.37500
O255        O  0.34706688  0.64144354  0.87244971    -0.57000
O256        O  0.34116364  0.58063168  0.93325088    -0.55800
C257        C  0.44319589  0.65967361  0.87324321     0.78000
O258        O  0.38435438  0.59249894  0.96535383    -0.58200
O259        O  0.36674818  0.61917822  0.83364602    -0.56600
O260        O  0.40756702  0.66932044  0.98575362    -0.56600
O261        O  0.42842331  0.67336691  0.87567177    -0.55800
O262        O  0.12971164  0.79323273  0.70919886    -0.57000
C263        C  0.16374806  0.78471513  0.83242198     0.75600
O264        O  0.08213831  0.70421531  0.78655873    -0.58100
C265        C  0.12422935  0.78227418  0.66690818     0.75600
C266        C  0.15620711  0.71705437  0.71377533     0.78000
Cd267      Cd  0.12756458  0.74949096  0.75000398     1.37500
O268        O  0.17020093  0.79536033  0.78981382    -0.57000
O269        O  0.17163443  0.74396730  0.72948950    -0.55800
C270        C  0.06532117  0.71577695  0.78772712     0.78000
O271        O  0.12725656  0.70468894  0.71620629    -0.58200
O272        O  0.14128997  0.75780378  0.83614479    -0.56600
O273        O  0.12038620  0.75602396  0.66280827    -0.56600
O274        O  0.07717086  0.74231755  0.77056138    -0.55800
O275        O  0.29407289  0.65915338  0.53224167    -0.57000
C276        C  0.27980340  0.62783808  0.66618128     0.75600
O277        O  0.20289594  0.63267061  0.61088899    -0.58100
C278        C  0.28152737  0.66658392  0.49988920     0.75600
C279        C  0.21592903  0.56969624  0.54208895     0.78000
Cd280      Cd  0.24785630  0.63029826  0.58227804     1.37500
O281        O  0.29395810  0.64315423  0.62909524    -0.57000
O282        O  0.24480525  0.58493885  0.54703863    -0.55800
C283        C  0.21792475  0.66032774  0.62335549     0.78000
O284        O  0.20161450  0.58249814  0.55607927    -0.58200
O285        O  0.25073943  0.61324831  0.66428448    -0.56600
O286        O  0.25321145  0.65709021  0.50565199    -0.56600
O287        O  0.24658834  0.67407733  0.61547877    -0.55800
O288        O  0.16955248  0.88750416  0.37771184    -0.57000
C289        C  0.12417547  0.85122647  0.49990749     0.75600
O290        O  0.12797635  0.93284995  0.45514704    -0.58100
C291        C  0.16386487  0.89374743  0.33611351     0.75600
C292        C  0.06561163  0.85993104  0.37953754     0.78000
Cd293      Cd  0.12705341  0.88851527  0.41916329     1.37500
O294        O  0.13562073  0.85082025  0.45943512    -0.57000
O295        O  0.07943683  0.84564167  0.38677717    -0.55800
C296        C  0.15699019  0.94953365  0.45625074     0.78000
O297        O  0.08008003  0.88761895  0.39174900    -0.58200
O298        O  0.11374444  0.86884655  0.50290855    -0.56600
O299        O  0.14121569  0.89763109  0.33310166    -0.56600
O300        O  0.17180101  0.93794629  0.43945215    -0.55800
C301        C  0.17254105  0.98060250  0.47701705     0.00700
C302        C  0.15472495  0.98978941  0.50255522    -0.11200
C303        C  0.16812940  0.51848280  0.52404691     0.02900
C304        C  0.20023553  0.53883883  0.52041953     0.00600
C305        C  0.21807257  0.52964907  0.49487367    -0.11100
C306        C  0.20464712  0.50105956  0.47300541     0.02800
H307        H  0.13011895  0.97438067  0.50622139     0.15800
H308        H  0.24268938  0.54505045  0.49129847     0.15800
C309        C  0.22446731  0.49384428  0.44591529     0.37400
C310        C  0.14824748  0.52596153  0.55022128     0.37300
N311        N  0.24032084  0.48810796  0.42406687    -0.42900
N312        N  0.13217827  0.53183844  0.57107852    -0.42900
C313        C  0.20266619  0.67536722  0.64663308     0.00700
C314        C  0.17133460  0.65757029  0.65902208    -0.11200
C315        C  0.15576594  0.67026031  0.68158143     0.02900
C316        C  0.17156509  0.70165060  0.69230679     0.00600
C317        C  0.20297497  0.71936399  0.68050355    -0.11100
C318        C  0.21852348  0.70673003  0.65782251     0.02800
H319        H  0.15881189  0.63344935  0.65128446     0.15800
H320        H  0.21550403  0.74350597  0.68822538     0.15800
C321        C  0.25058788  0.72688156  0.64597786     0.37400
C322        C  0.12374862  0.65021014  0.69375593     0.37300
N323        N  0.27625772  0.74323166  0.63656861    -0.42900
N324        N  0.09810738  0.63389456  0.70337263    -0.42900
C325        C  0.12291315  0.79935007  0.62437501     0.00700
C326        C  0.12865455  0.79213859  0.57797539    -0.11200
C327        C  0.12903651  0.80845400  0.53695757     0.02900
C328        C  0.12331928  0.83255030  0.54179662     0.00600
C329        C  0.11679272  0.83920444  0.58807358    -0.11100
C330        C  0.11651349  0.82296000  0.62904990     0.02800
H331        H  0.13337584  0.77391312  0.57372641     0.15800
H332        H  0.11205056  0.85741573  0.59248832     0.15800
C333        C  0.10868112  0.83050104  0.67514505     0.37400
C334        C  0.13504344  0.79965434  0.49046485     0.37300
N335        N  0.10229501  0.83642825  0.71209179    -0.42900
N336        N  0.13984290  0.79273461  0.45308705    -0.42900
C337        C  0.47375542  0.67330782  0.84910026     0.00700
C338        C  0.49261490  0.66131433  0.85910582    -0.11200
C339        C  0.02226994  0.67429010  0.83928880     0.02900
C340        C  0.03356429  0.69971188  0.80804885     0.00600
C341        C  0.01430484  0.71106324  0.79693160    -0.11100
C342        C  0.48478067  0.69822049  0.81685612     0.02800
H343        H  0.48452809  0.64218633  0.88361327     0.15800
H344        H  0.02236709  0.73025941  0.77255750     0.15800
C345        C  0.46639413  0.71102941  0.80272270     0.37400
C346        C  0.04087515  0.66179704  0.85371459     0.37300
N347        N  0.45184464  0.72144540  0.79114744    -0.42900
N348        N  0.05564928  0.65171474  0.86573459    -0.42900
C349        C  0.29658044  0.62716520  0.70929328     0.00700
C350        C  0.32452479  0.62813520  0.70264711    -0.11200
C351        C  0.34183201  0.62851689  0.74239727     0.02900
C352        C  0.33132296  0.62830217  0.78993686     0.00600
C353        C  0.30336748  0.62736266  0.79645609    -0.11100
C354        C  0.28591096  0.62662754  0.75672072     0.02800
H355        H  0.33285685  0.62866249  0.66647457     0.15800
H356        H  0.29514634  0.62727001  0.83264636     0.15800
C357        C  0.25798517  0.62688385  0.76582738     0.37400
C358        C  0.37086846  0.63052277  0.73305550     0.37300
N359        N  0.23568980  0.62720693  0.77328837    -0.42900
N360        N  0.39415344  0.63222082  0.72538147    -0.42900
C361        C  0.21367316  0.89548437  0.20844235     0.00700
C362        C  0.22851546  0.90327126  0.25361023    -0.11200
C363        C  0.21309122  0.90345411  0.29557334     0.02900
C364        C  0.18200411  0.89557358  0.29283784     0.00600
C365        C  0.16749392  0.88878114  0.24749492    -0.11100
C366        C  0.18292088  0.88870561  0.20552226     0.02800
H367        H  0.25229438  0.90902780  0.25634770     0.15800
H368        H  0.14373825  0.88308388  0.24482831     0.15800
C369        C  0.16672259  0.88236089  0.16003328     0.37400
C370        C  0.23015787  0.91291127  0.34037840     0.37300
N371        N  0.15365359  0.87740293  0.12368250    -0.42900
N372        N  0.24411434  0.92074570  0.37600616    -0.42900
C373        C  0.31073526  0.98339423  0.02438669     0.00700
C374        C  0.34301256  0.50117076  0.02427473    -0.11200
C375        C  0.35846655  0.53020959  0.00340142     0.02900
C376        C  0.34150660  0.54201532  0.98172367     0.00600
C377        C  0.30921922  0.52410737  0.98166821    -0.11100
C378        C  0.29379679  0.99518557  0.00265566     0.02800
H379        H  0.35630162  0.49237639  0.04064677     0.15800
H380        H  0.29580794  0.53270441  0.96516790     0.15800
C381        C  0.26060865  0.97787020  0.99972512     0.37400
C382        C  0.39168442  0.54691834  0.00400499     0.37300
N383        N  0.23402964  0.96395698  0.99733606    -0.42900
N384        N  0.41831018  0.56028131  0.00444050    -0.42900
C385        C  0.18131831  0.80288710  0.87543469     0.00700
C386        C  0.20844063  0.83118030  0.86827147    -0.11200
C387        C  0.22533257  0.84942947  0.90762148     0.02900
C388        C  0.21528571  0.83939404  0.95547813     0.00600
C389        C  0.18817051  0.81131222  0.96268612    -0.11100
C390        C  0.17123122  0.79310627  0.92353085     0.02800
H391        H  0.21636573  0.83927626  0.83186676     0.15800
H392        H  0.18016902  0.80343148  0.99915945     0.15800
C393        C  0.14323658  0.76486843  0.93434227     0.37400
C394        C  0.25195181  0.87895232  0.89769808     0.37300
N395        N  0.12076742  0.74229336  0.94309259    -0.42900
N396        N  0.27315002  0.90270761  0.88985265    -0.42900
C397        C  0.33390571  0.71918299  0.37632722     0.00700
C398        C  0.30791791  0.72002189  0.39137279    -0.11200
C399        C  0.29045174  0.70309880  0.43126441     0.02900
C400        C  0.29920300  0.68511314  0.45751857     0.00600
C401        C  0.32568588  0.68488109  0.44315421    -0.11100
C402        C  0.34292986  0.70151983  0.40284617     0.02800
H403        H  0.30090123  0.73371385  0.37138372     0.15800
H404        H  0.33282311  0.67134622  0.46321995     0.15800
C405        C  0.37017456  0.70067231  0.39044695     0.37400
C406        C  0.26418372  0.70531239  0.44495973     0.37300
N407        N  0.39200808  0.70000959  0.38051719    -0.42900
N408        N  0.24314624  0.70713632  0.45586121    -0.42900
C409        C  0.03438834  0.84529335  0.35755758     0.00700
C410        C  0.01773794  0.86029912  0.35972835    -0.11200
C411        C  0.98852437  0.84778475  0.33852859     0.02900
C412        C  0.47548312  0.81973748  0.31377883     0.00600
C413        C  0.49210924  0.80474377  0.31197588    -0.11100
C414        C  0.02101959  0.81699515  0.33357311     0.02800
H415        H  0.02747776  0.88186055  0.37824876     0.15800
H416        H  0.48247587  0.78309828  0.29363291     0.15800
C417        C  0.03638344  0.79997516  0.32947823     0.37400
C418        C  0.47271155  0.86434924  0.34301995     0.37300
N419        N  0.04850816  0.78616756  0.32609068    -0.42900
N420        N  0.96010801  0.87767944  0.34687103    -0.42900
C421        C  0.34078468  0.81968996  0.18924073     0.00700
C422        C  0.30918303  0.80222210  0.17880787    -0.11200
C423        C  0.29342134  0.81517125  0.15808621     0.02900
C424        C  0.30934559  0.84659290  0.14714367     0.00600
C425        C  0.34082059  0.86418057  0.15835501    -0.11100
C426        C  0.35656674  0.85120030  0.17921000     0.02800
H427        H  0.29651909  0.77803998  0.18661538     0.15800
H428        H  0.35340505  0.88836585  0.15065924     0.15800
C429        C  0.38881432  0.87102622  0.18982824     0.37400
C430        C  0.26095727  0.79535438  0.14879498     0.37300
N431        N  0.41463902  0.88716666  0.19825776    -0.42900
N432        N  0.23497191  0.77919346  0.14154643    -0.42900
C433        C  0.38382914  0.72034808  0.12266001     0.00700
C434        C  0.35612800  0.69509776  0.10679895    -0.11200
C435        C  0.35536422  0.67829274  0.06628448     0.02900
C436        C  0.38285859  0.68647197  0.04089648     0.00600
C437        C  0.41062243  0.71132430  0.05738205    -0.11100
C438        C  0.41134607  0.72824540  0.09764962     0.02800
H439        H  0.33488464  0.68855931  0.12588104     0.15800
H440        H  0.43190223  0.71765862  0.03867669     0.15800
C441        C  0.44087536  0.75292095  0.11336974     0.37400
C442        C  0.32615424  0.65227710  0.05257580     0.37300
N443        N  0.46450211  0.77266268  0.12615775    -0.42900
N444        N  0.30282327  0.63140657  0.04141669    -0.42900
O445        O  0.86533568  0.22876272  0.30568487    -0.57000
C446        C  0.88336940  0.23775523  0.16527335     0.75600
O447        O  0.84094663  0.27579072  0.21845668    -0.58100
C448        C  0.85086956  0.23687015  0.33304502     0.75600
C449        C  0.94464124  0.30475207  0.29042614     0.78000
Cd450      Cd  0.88373874  0.27155949  0.24900233     1.37500
O451        O  0.86224302  0.22595843  0.19687636    -0.57000
O452        O  0.93475896  0.28041415  0.26682946    -0.55800
C453        C  0.85606925  0.30399270  0.20978322     0.78000
O454        O  0.92655129  0.31480560  0.29332504    -0.58200
O455        O  0.90399390  0.26521429  0.17205495    -0.56600
O456        O  0.85126902  0.26081602  0.32105777    -0.56600
O457        O  0.88454529  0.31750290  0.21927083    -0.55800
O458        O  0.71833936  0.35486401  0.03823502    -0.57000
C459        C  0.73077641  0.39442414  0.16566158     0.75600
O460        O  0.80827636  0.39026322  0.11817206    -0.58100
C461        C  0.73211234  0.35746098  0.99864823     0.75600
C462        C  0.79547129  0.45254046  0.04600865     0.78000
Cd463      Cd  0.76413095  0.39161891  0.08370295     1.37500
O464        O  0.71728801  0.37988044  0.12773319    -0.57000
O465        O  0.76771511  0.43900525  0.05973928    -0.55800
C466        C  0.79411926  0.36181975  0.12471325     0.78000
O467        O  0.80938833  0.43813214  0.05127029    -0.58200
O468        O  0.75983657  0.40771331  0.16548237    -0.56600
O469        O  0.76088210  0.37584842  0.99841257    -0.56600
O470        O  0.76639974  0.34734795  0.11110667    -0.55800
O471        O  0.85998667  0.15327821  0.97247005    -0.57000
C472        C  0.84904796  0.12971529  0.83335569     0.75600
O473        O  0.93056248  0.13370097  0.89302274    -0.58100
C474        C  0.88347653  0.16917071  0.99825528     0.75600
C475        C  0.85630318  0.07268047  0.95926737     0.78000
Cd476      Cd  0.88336394  0.13281753  0.91798273     1.37500
O477        O  0.84706663  0.14144349  0.87244985    -0.57000
O478        O  0.84116351  0.08063198  0.93325157    -0.55800
C479        C  0.94319577  0.15967391  0.87324309     0.78000
O480        O  0.88435443  0.09249902  0.96535354    -0.58200
O481        O  0.86674808  0.11917834  0.83364604    -0.56600
O482        O  0.90756693  0.16932005  0.98575434    -0.56600
O483        O  0.92842334  0.17336734  0.87567231    -0.55800
O484        O  0.62971186  0.29323279  0.70919891    -0.57000
C485        C  0.66374797  0.28471522  0.83242218     0.75600
O486        O  0.58213842  0.20421542  0.78655914    -0.58100
C487        C  0.62422957  0.28227424  0.66690824     0.75600
C488        C  0.65620704  0.21705424  0.71377545     0.78000
Cd489      Cd  0.62756464  0.24949096  0.75000412     1.37500
O490        O  0.67020098  0.29536034  0.78981397    -0.57000
O491        O  0.67163440  0.24396715  0.72948977    -0.55800
C492        C  0.56532118  0.21577696  0.78772710     0.78000
O493        O  0.62725651  0.20468889  0.71620628    -0.58200
O494        O  0.64128982  0.25780391  0.83614500    -0.56600
O495        O  0.62038638  0.25602400  0.66280837    -0.56600
O496        O  0.57717079  0.24231746  0.77056100    -0.55800
O497        O  0.79407288  0.15915334  0.53224142    -0.57000
C498        C  0.77980340  0.12783828  0.66618122     0.75600
O499        O  0.70289588  0.13267057  0.61088876    -0.58100
C500        C  0.78152739  0.16658396  0.49988904     0.75600
C501        C  0.71592902  0.06969628  0.54208875     0.78000
Cd502      Cd  0.74785630  0.13029828  0.58227783     1.37500
O503        O  0.79395811  0.14315438  0.62909514    -0.57000
O504        O  0.74480522  0.08493877  0.54703879    -0.55800
C505        C  0.71792469  0.16032766  0.62335543     0.78000
O506        O  0.70161453  0.08249827  0.55607873    -0.58200
O507        O  0.75073944  0.11324848  0.66428439    -0.56600
O508        O  0.75321150  0.15709034  0.50565192    -0.56600
O509        O  0.74658828  0.17407726  0.61547881    -0.55800
O510        O  0.66955240  0.38750404  0.37771189    -0.57000
C511        C  0.62417557  0.35122643  0.49990751     0.75600
O512        O  0.62797632  0.43284980  0.45514747    -0.58100
C513        C  0.66386480  0.39374730  0.33611355     0.75600
C514        C  0.56561162  0.35993098  0.37953778     0.78000
Cd515      Cd  0.62705337  0.38851516  0.41916343     1.37500
O516        O  0.63562079  0.35082021  0.45943511    -0.57000
O517        O  0.57943660  0.34564147  0.38677821    -0.55800
C518        C  0.65699015  0.44953349  0.45625110     0.78000
O519        O  0.58008017  0.38761901  0.39174857    -0.58200
O520        O  0.61374448  0.36884647  0.50290861    -0.56600
O521        O  0.64121564  0.39763099  0.33310170    -0.56600
O522        O  0.67180096  0.43794614  0.43945239    -0.55800
C523        C  0.67254104  0.48060235  0.47701737     0.00700
C524        C  0.65472483  0.48978929  0.50255528    -0.11200
C525        C  0.66812934  0.01848292  0.52404649     0.02900
C526        C  0.70023549  0.03883886  0.52041931     0.00600
C527        C  0.71807252  0.02964901  0.49487366    -0.11100
C528        C  0.70464705  0.00105952  0.47300536     0.02800
H529        H  0.63011922  0.47438085  0.50622128     0.15800
H530        H  0.74268942  0.04505038  0.49129860     0.15800
C531        C  0.72446724  0.99384420  0.44591532     0.37400
C532        C  0.64824737  0.02596170  0.55022056     0.37300
N533        N  0.74032076  0.98810786  0.42406697    -0.42900
N534        N  0.63217808  0.03183866  0.57107756    -0.42900
C535        C  0.70266612  0.17536710  0.64663311     0.00700
C536        C  0.67133454  0.15757019  0.65902208    -0.11200
C537        C  0.65576586  0.17026018  0.68158145     0.02900
C538        C  0.67156503  0.20165048  0.69230692     0.00600
C539        C  0.70297487  0.21936374  0.68050371    -0.11100
C540        C  0.71852343  0.20672991  0.65782266     0.02800
H541        H  0.65881181  0.13344922  0.65128437     0.15800
H542        H  0.71550424  0.24350630  0.68822580     0.15800
C543        C  0.75058783  0.22688143  0.64597798     0.37400
C544        C  0.62374854  0.15021002  0.69375580     0.37300
N545        N  0.77625765  0.24323153  0.63656873    -0.42900
N546        N  0.59810727  0.13389442  0.70337237    -0.42900
C547        C  0.62291338  0.29935010  0.62437504     0.00700
C548        C  0.62865471  0.29213864  0.57797542    -0.11200
C549        C  0.62903668  0.30845400  0.53695759     0.02900
C550        C  0.62331945  0.33255031  0.54179663     0.00600
C551        C  0.61679294  0.33920445  0.58807360    -0.11100
C552        C  0.61651375  0.32296006  0.62904992     0.02800
H553        H  0.63337606  0.27391284  0.57372638     0.15800
H554        H  0.61205080  0.35741580  0.59248836     0.15800
C555        C  0.60868148  0.33050116  0.67514509     0.37400
C556        C  0.63504367  0.29965438  0.49046483     0.37300
N557        N  0.60229546  0.33642840  0.71209187    -0.42900
N558        N  0.63984317  0.29273471  0.45308707    -0.42900
C559        C  0.97375529  0.17330816  0.84910014     0.00700
C560        C  0.99261443  0.16131415  0.85910460    -0.11200
C561        C  0.52227000  0.17429019  0.83928898     0.02900
C562        C  0.53356428  0.19971186  0.80804879     0.00600
C563        C  0.51430479  0.21106316  0.79693128    -0.11100
C564        C  0.98478085  0.19822133  0.81685698     0.02800
H565        H  0.98452732  0.14218563  0.88361135     0.15800
H566        H  0.52236690  0.23025903  0.77255730     0.15800
C567        C  0.96639462  0.21103078  0.80272449     0.37400
C568        C  0.54087526  0.16179726  0.85371502     0.37300
N569        N  0.95184536  0.22144716  0.79114999    -0.42900
N570        N  0.55564943  0.15171502  0.86573526    -0.42900
C571        C  0.79658040  0.12716544  0.70929329     0.00700
C572        C  0.82452474  0.12813542  0.70264713    -0.11200
C573        C  0.84183188  0.12851700  0.74239734     0.02900
C574        C  0.83132278  0.12830222  0.78993693     0.00600
C575        C  0.80336734  0.12736278  0.79645612    -0.11100
C576        C  0.78591087  0.12662775  0.75672071     0.02800
H577        H  0.83285682  0.12866276  0.66647472     0.15800
H578        H  0.79514616  0.12727009  0.83264637     0.15800
C579        C  0.75798510  0.12688411  0.76582734     0.37400
C580        C  0.87086826  0.13052275  0.73305556     0.37300
N581        N  0.73568977  0.12720728  0.77328834    -0.42900
N582        N  0.89415317  0.13222066  0.72538149    -0.42900
C583        C  0.71367316  0.39548429  0.20844245     0.00700
C584        C  0.72851537  0.40327102  0.25361038    -0.11200
C585        C  0.71309110  0.40345381  0.29557347     0.02900
C586        C  0.68200403  0.39557342  0.29283790     0.00600
C587        C  0.66749395  0.38878117  0.24749493    -0.11100
C588        C  0.68292092  0.38870567  0.20552228     0.02800
H589        H  0.75229434  0.40902753  0.25634791     0.15800
H590        H  0.64373820  0.38308402  0.24482825     0.15800
C591        C  0.66672274  0.38236118  0.16003325     0.37400
C592        C  0.73015771  0.41291082  0.34037859     0.37300
N593        N  0.65365384  0.37740346  0.12368240    -0.42900
N594        N  0.74411413  0.42074512  0.37600639    -0.42900
C595        C  0.81073530  0.48339454  0.02438732     0.00700
C596        C  0.84301262  0.00117084  0.02427454    -0.11200
C597        C  0.85846658  0.03020971  0.00340130     0.02900
C598        C  0.84150660  0.04201550  0.98172385     0.00600
C599        C  0.80921921  0.02410759  0.98166857    -0.11100
C600        C  0.79379678  0.49518608  0.00265703     0.02800
H601        H  0.85630162  0.99237649  0.04064624     0.15800
H602        H  0.79580791  0.03270466  0.96516838     0.15800
C603        C  0.76060863  0.47787088  0.99972715     0.37400
C604        C  0.89168444  0.04691843  0.00400471     0.37300
N605        N  0.73402957  0.46395771  0.99733864    -0.42900
N606        N  0.91831021  0.06028140  0.00444010    -0.42900
C607        C  0.68131821  0.30288724  0.87543485     0.00700
C608        C  0.70844050  0.33118041  0.86827169    -0.11200
C609        C  0.72533252  0.34942960  0.90762160     0.02900
C610        C  0.71528566  0.33939417  0.95547826     0.00600
C611        C  0.68817045  0.31131238  0.96268631    -0.11100
C612        C  0.67123112  0.29310642  0.92353104     0.02800
H613        H  0.71636570  0.33927648  0.83186648     0.15800
H614        H  0.68016900  0.30343170  0.99915946     0.15800
C615        C  0.64323650  0.26486860  0.93434250     0.37400
C616        C  0.75195180  0.37895239  0.89769825     0.37300
N617        N  0.62076734  0.24229353  0.94309291    -0.42900
N618        N  0.77315009  0.40270771  0.88985292    -0.42900
C619        C  0.83390578  0.21918310  0.37632715     0.00700
C620        C  0.80791792  0.22002185  0.39137263    -0.11200
C621        C  0.79045170  0.20309875  0.43126412     0.02900
C622        C  0.79920302  0.18511317  0.45751842     0.00600
C623        C  0.82568596  0.18488119  0.44315413    -0.11100
C624        C  0.84292997  0.20151999  0.40284615     0.02800
H625        H  0.80090111  0.23371390  0.37138324     0.15800
H626        H  0.83282319  0.17134634  0.46321986     0.15800
C627        C  0.87017473  0.20067255  0.39044698     0.37400
C628        C  0.76418355  0.20531218  0.44495916     0.37300
N629        N  0.89200830  0.20000994  0.38051722    -0.42900
N630        N  0.74314595  0.20713599  0.45586025    -0.42900
C631        C  0.53438839  0.34529329  0.35755764     0.00700
C632        C  0.51773792  0.36029898  0.35972850    -0.11200
C633        C  0.48852436  0.34778461  0.33852868     0.02900
C634        C  0.97548321  0.31973749  0.31377891     0.00600
C635        C  0.99210950  0.30474402  0.31197536    -0.11100
C636        C  0.52101978  0.31699520  0.33357288     0.02800
H637        H  0.52747768  0.38186039  0.37824914     0.15800
H638        H  0.98247607  0.28309836  0.29363173     0.15800
C639        C  0.53638371  0.29997530  0.32947789     0.37400
C640        C  0.97271131  0.36434882  0.34302156     0.37300
N641        N  0.54850844  0.28616771  0.32609032    -0.42900
N642        N  0.46010789  0.37767917  0.34687144    -0.42900
C643        C  0.84078474  0.31969005  0.18924053     0.00700
C644        C  0.80918302  0.30222210  0.17880784    -0.11200
C645        C  0.79342136  0.31517132  0.15808614     0.02900
C646        C  0.80934560  0.34659295  0.14714352     0.00600
C647        C  0.84082062  0.36418056  0.15835463    -0.11100
C648        C  0.85656680  0.35120034  0.17920955     0.02800
H649        H  0.79651930  0.27804044  0.18661532     0.15800
H650        H  0.85340521  0.38836607  0.15065862     0.15800
C651        C  0.88881450  0.37102628  0.18982735     0.37400
C652        C  0.76095729  0.29535446  0.14879510     0.37300
N653        N  0.91463921  0.38716670  0.19825645    -0.42900
N654        N  0.73497189  0.27919348  0.14154670    -0.42900
C655        C  0.88382921  0.22034819  0.12266011     0.00700
C656        C  0.85612802  0.19509792  0.10679895    -0.11200
C657        C  0.85536432  0.17829298  0.06628437     0.02900
C658        C  0.88285871  0.18647215  0.04089656     0.00600
C659        C  0.91062266  0.21132442  0.05738220    -0.11100
C660        C  0.91134615  0.22824546  0.09764987     0.02800
H661        H  0.83488487  0.18855959  0.12588070     0.15800
H662        H  0.93190199  0.21765853  0.03867742     0.15800
C663        C  0.94087543  0.25292094  0.11337019     0.37400
C664        C  0.82615429  0.15227745  0.05257548     0.37300
N665        N  0.96450213  0.27266265  0.12615841    -0.42900
N666        N  0.80282330  0.13140700  0.04141623    -0.42900
O667        O  0.86533569  0.72876271  0.30568486    -0.57000
C668        C  0.88336943  0.73775523  0.16527342     0.75600
O669        O  0.84094657  0.77579062  0.21845657    -0.58100
C670        C  0.85086955  0.73687013  0.33304503     0.75600
C671        C  0.94464121  0.80475213  0.29042605     0.78000
Cd672      Cd  0.88373869  0.77155946  0.24900236     1.37500
O673        O  0.86224307  0.72595843  0.19687642    -0.57000
O674        O  0.93475896  0.78041424  0.26682932    -0.55800
C675        C  0.85606916  0.80399264  0.20978332     0.78000
O676        O  0.92655120  0.81480561  0.29332507    -0.58200
O677        O  0.90399394  0.76521431  0.17205500    -0.56600
O678        O  0.85126899  0.76081598  0.32105781    -0.56600
O679        O  0.88454516  0.81750286  0.21927110    -0.55800
O680        O  0.71833948  0.85486385  0.03823495    -0.57000
C681        C  0.73077625  0.89442416  0.16566142     0.75600
O682        O  0.80827632  0.89026317  0.11817210    -0.58100
C683        C  0.73211245  0.85746101  0.99864809     0.75600
C684        C  0.79547129  0.95254041  0.04600854     0.78000
Cd685      Cd  0.76413091  0.89161888  0.08370292     1.37500
O686        O  0.71728787  0.87988038  0.12773308    -0.57000
O687        O  0.76771503  0.93900513  0.05973890    -0.55800
C688        C  0.79411919  0.86181970  0.12471339     0.78000
O689        O  0.80938837  0.93813218  0.05127053    -0.58200
O690        O  0.75983642  0.90771338  0.16548221    -0.56600
O691        O  0.76088219  0.87584862  0.99841239    -0.56600
O692        O  0.76639968  0.84734791  0.11110682    -0.55800
O693        O  0.85998658  0.65327791  0.97247039    -0.57000
C694        C  0.84904814  0.62971543  0.83335569     0.75600
O695        O  0.93056264  0.63370098  0.89302320    -0.58100
C696        C  0.88347653  0.66917075  0.99825526     0.75600
C697        C  0.85630324  0.57268050  0.95926742     0.78000
Cd698      Cd  0.88336402  0.63281755  0.91798276     1.37500
O699        O  0.84706681  0.64144362  0.87244987    -0.57000
O700        O  0.84116370  0.58063184  0.93325094    -0.55800
C701        C  0.94319586  0.65967380  0.87324315     0.78000
O702        O  0.88435438  0.59249919  0.96535423    -0.58200
O703        O  0.86674825  0.61917847  0.83364602    -0.56600
O704        O  0.90756705  0.66932043  0.98575395    -0.56600
O705        O  0.92842340  0.67336720  0.87567204    -0.55800
O706        O  0.62971180  0.79323280  0.70919905    -0.57000
C707        C  0.66374803  0.78471522  0.83242210     0.75600
O708        O  0.58213862  0.70421547  0.78655961    -0.58100
C709        C  0.62422945  0.78227426  0.66690838     0.75600
C710        C  0.65620717  0.71705429  0.71377555     0.78000
Cd711      Cd  0.62756466  0.74949095  0.75000410     1.37500
O712        O  0.67020115  0.79536025  0.78981384    -0.57000
O713        O  0.67163449  0.74396721  0.72948975    -0.55800
C714        C  0.56532126  0.71577687  0.78772725     0.78000
O715        O  0.62725663  0.70468891  0.71620635    -0.58200
O716        O  0.64128971  0.75780401  0.83614500    -0.56600
O717        O  0.62038625  0.75602402  0.66280844    -0.56600
O718        O  0.57717071  0.74231726  0.77056065    -0.55800
O719        O  0.79407289  0.65915321  0.53224140    -0.57000
C720        C  0.77980343  0.62783817  0.66618122     0.75600
O721        O  0.70289590  0.63267055  0.61088879    -0.58100
C722        C  0.78152742  0.66658390  0.49988910     0.75600
C723        C  0.71592906  0.56969624  0.54208877     0.78000
Cd724      Cd  0.74785631  0.63029822  0.58227788     1.37500
O725        O  0.79395813  0.64315431  0.62909518    -0.57000
O726        O  0.74480528  0.58493884  0.54703840    -0.55800
C727        C  0.71792473  0.66032763  0.62335549     0.78000
O728        O  0.70161454  0.58249813  0.55607916    -0.58200
O729        O  0.75073946  0.61324833  0.66428436    -0.56600
O730        O  0.75321154  0.65709034  0.50565204    -0.56600
O731        O  0.74658833  0.67407721  0.61547883    -0.55800
O732        O  0.66955219  0.88750394  0.37771170    -0.57000
C733        C  0.62417550  0.85122645  0.49990759     0.75600
O734        O  0.62797621  0.93284978  0.45514736    -0.58100
C735        C  0.66386457  0.89374722  0.33611339     0.75600
C736        C  0.56561148  0.85993094  0.37953790     0.78000
Cd737      Cd  0.62705325  0.88851515  0.41916342     1.37500
O738        O  0.63562072  0.85082022  0.45943520    -0.57000
O739        O  0.57943650  0.84564145  0.38677826    -0.55800
C740        C  0.65699005  0.94953349  0.45625105     0.78000
O741        O  0.58008004  0.88761897  0.39174866    -0.58200
O742        O  0.61374443  0.86884651  0.50290866    -0.56600
O743        O  0.64121540  0.89763090  0.33310162    -0.56600
O744        O  0.67180087  0.93794614  0.43945241    -0.55800
C745        C  0.67254093  0.98060237  0.47701729     0.00700
C746        C  0.65472482  0.98978938  0.50255519    -0.11200
C747        C  0.66812941  0.51848287  0.52404657     0.02900
C748        C  0.70023554  0.53883883  0.52041934     0.00600
C749        C  0.71807259  0.52964901  0.49487365    -0.11100
C750        C  0.70464712  0.50105951  0.47300538     0.02800
H751        H  0.63011882  0.97438070  0.50622125     0.15800
H752        H  0.74268944  0.54505038  0.49129852     0.15800
C753        C  0.72446730  0.49384423  0.44591518     0.37400
C754        C  0.64824743  0.52596161  0.55022072     0.37300
N755        N  0.74032082  0.48810796  0.42406668    -0.42900
N756        N  0.63217813  0.53183853  0.57107775    -0.42900
C757        C  0.70266623  0.67536711  0.64663327     0.00700
C758        C  0.67133461  0.65757018  0.65902216    -0.11200
C759        C  0.65576599  0.67026023  0.68158161     0.02900
C760        C  0.67156517  0.70165048  0.69230715     0.00600
C761        C  0.70297510  0.71936385  0.68050413    -0.11100
C762        C  0.71852357  0.70672987  0.65782301     0.02800
H763        H  0.65881191  0.63344936  0.65128437     0.15800
H764        H  0.71550419  0.74350576  0.68822612     0.15800
C765        C  0.75058802  0.72688137  0.64597851     0.37400
C766        C  0.62374863  0.65021008  0.69375589     0.37300
N767        N  0.77625787  0.74323143  0.63656938    -0.42900
N768        N  0.59810736  0.63389453  0.70337235    -0.42900
C769        C  0.62291325  0.79935013  0.62437519     0.00700
C770        C  0.62865446  0.79213861  0.57797555    -0.11200
C771        C  0.62903642  0.80845393  0.53695770     0.02900
C772        C  0.62331933  0.83255034  0.54179676     0.00600
C773        C  0.61679293  0.83920451  0.58807373    -0.11100
C774        C  0.61651373  0.82296018  0.62905007     0.02800
H775        H  0.63337572  0.77391273  0.57372649     0.15800
H776        H  0.61205079  0.85741616  0.59248855     0.15800
C777        C  0.60868159  0.83050138  0.67514530     0.37400
C778        C  0.63504318  0.79965417  0.49046490     0.37300
N779        N  0.60229571  0.83642869  0.71209210    -0.42900
N780        N  0.63984246  0.79273435  0.45308708    -0.42900
C781        C  0.97375535  0.67330797  0.84910011     0.00700
C782        C  0.99261464  0.66131417  0.85910509    -0.11200
C783        C  0.52227023  0.67429029  0.83928958     0.02900
C784        C  0.53356440  0.69971181  0.80804907     0.00600
C785        C  0.51430477  0.71106286  0.79693136    -0.11100
C786        C  0.98478074  0.69822086  0.81685644     0.02800
H787        H  0.98452769  0.64218597  0.88361210     0.15800
H788        H  0.52236695  0.73025897  0.77255668     0.15800
C789        C  0.96639438  0.71103010  0.80272359     0.37400
C790        C  0.54087558  0.66179754  0.85371591     0.37300
N791        N  0.95184500  0.72144630  0.79114882    -0.42900
N792        N  0.55564980  0.65171540  0.86573646    -0.42900
C793        C  0.79658045  0.62716536  0.70929330     0.00700
C794        C  0.82452481  0.62813538  0.70264714    -0.11200
C795        C  0.84183199  0.62851706  0.74239735     0.02900
C796        C  0.83132293  0.62830235  0.78993695     0.00600
C797        C  0.80336747  0.62736287  0.79645613    -0.11100
C798        C  0.78591095  0.62662773  0.75672072     0.02800
H799        H  0.83285686  0.62866267  0.66647472     0.15800
H800        H  0.79514630  0.62727020  0.83264641     0.15800
C801        C  0.75798510  0.62688393  0.76582735     0.37400
C802        C  0.87086840  0.63052286  0.73305555     0.37300
N803        N  0.73568971  0.62720699  0.77328833    -0.42900
N804        N  0.89415332  0.63222080  0.72538147    -0.42900
C805        C  0.71367300  0.89548432  0.20844228     0.00700
C806        C  0.72851510  0.90327102  0.25361021    -0.11200
C807        C  0.71309092  0.90345383  0.29557331     0.02900
C808        C  0.68200383  0.89557339  0.29283773     0.00600
C809        C  0.66749371  0.88878111  0.24749477    -0.11100
C810        C  0.68292073  0.88870566  0.20552211     0.02800
H811        H  0.75229451  0.90902762  0.25634781     0.15800
H812        H  0.64373813  0.88308394  0.24482811     0.15800
C813        C  0.66672252  0.88236106  0.16003310     0.37400
C814        C  0.73015751  0.91291088  0.34037843     0.37300
N815        N  0.65365355  0.87740318  0.12368227    -0.42900
N816        N  0.74411395  0.92074522  0.37600622    -0.42900
C817        C  0.81073527  0.98339447  0.02438715     0.00700
C818        C  0.84301261  0.50117087  0.02427450    -0.11200
C819        C  0.85846660  0.53020972  0.00340128     0.02900
C820        C  0.84150662  0.54201555  0.98172397     0.00600
C821        C  0.80921924  0.52410772  0.98166895    -0.11100
C822        C  0.79379678  0.99518594  0.00265661     0.02800
H823        H  0.85630176  0.49237638  0.04064619     0.15800
H824        H  0.79580793  0.53270487  0.96516894     0.15800
C825        C  0.76060863  0.97787067  0.99972642     0.37400
C826        C  0.89168444  0.54691837  0.00400445     0.37300
N827        N  0.73402961  0.96395749  0.99733762    -0.42900
N828        N  0.91831022  0.56028128  0.00443967    -0.42900
C829        C  0.68131833  0.80288724  0.87543476     0.00700
C830        C  0.70844060  0.83118047  0.86827149    -0.11200
C831        C  0.72533261  0.84942965  0.90762144     0.02900
C832        C  0.71528582  0.83939421  0.95547811     0.00600
C833        C  0.68817067  0.81131236  0.96268618    -0.11100
C834        C  0.67123134  0.79310639  0.92353095     0.02800
H835        H  0.71636565  0.83927647  0.83186665     0.15800
H836        H  0.68016925  0.80343164  0.99915946     0.15800
C837        C  0.64323679  0.76486849  0.93434248     0.37400
C838        C  0.75195182  0.87895250  0.89769802     0.37300
N839        N  0.62076772  0.74229337  0.94309295    -0.42900
N840        N  0.77315004  0.90270782  0.88985263    -0.42900
C841        C  0.83390578  0.71918305  0.37632716     0.00700
C842        C  0.80791798  0.72002192  0.39137276    -0.11200
C843        C  0.79045179  0.70309878  0.43126430     0.02900
C844        C  0.79920306  0.68511313  0.45751846     0.00600
C845        C  0.82568594  0.68488108  0.44315406    -0.11100
C846        C  0.84292991  0.70151984  0.40284602     0.02800
H847        H  0.80090130  0.73371391  0.37138372     0.15800
H848        H  0.83282315  0.67134620  0.46321972     0.15800
C849        C  0.87017460  0.70067229  0.39044670     0.37400
C850        C  0.76418370  0.70531227  0.44495953     0.37300
N851        N  0.89200810  0.70000959  0.38051683    -0.42900
N852        N  0.74314616  0.70713614  0.45586086    -0.42900
C853        C  0.53438821  0.84529320  0.35755786     0.00700
C854        C  0.51773793  0.86029910  0.35972806    -0.11200
C855        C  0.48852440  0.84778475  0.33852816     0.02900
C856        C  0.97548318  0.81973763  0.31377880     0.00600
C857        C  0.99210946  0.80474412  0.31197530    -0.11100
C858        C  0.52101937  0.81699486  0.33357383     0.02800
H859        H  0.52747787  0.88186074  0.37824812     0.15800
H860        H  0.98247607  0.78309853  0.29363178     0.15800
C861        C  0.53638314  0.79997476  0.32947950     0.37400
C862        C  0.97271126  0.86434897  0.34302125     0.37300
N863        N  0.54850778  0.78616707  0.32609242    -0.42900
N864        N  0.46010849  0.87767995  0.34686901    -0.42900
C865        C  0.84078462  0.81968995  0.18924064     0.00700
C866        C  0.80918294  0.80222209  0.17880797    -0.11200
C867        C  0.79342124  0.81517125  0.15808636     0.02900
C868        C  0.80934549  0.84659289  0.14714374     0.00600
C869        C  0.84082053  0.86418056  0.15835487    -0.11100
C870        C  0.85656670  0.85120027  0.17920973     0.02800
H871        H  0.79651903  0.77804007  0.18661555     0.15800
H872        H  0.85340494  0.88836572  0.15065905     0.15800
C873        C  0.88881434  0.87102617  0.18982756     0.37400
C874        C  0.76095714  0.79535440  0.14879537     0.37300
N875        N  0.91463910  0.88716665  0.19825670    -0.42900
N876        N  0.73497174  0.77919346  0.14154709    -0.42900
C877        C  0.88382924  0.72034819  0.12266018     0.00700
C878        C  0.85612803  0.69509790  0.10679906    -0.11200
C879        C  0.85536432  0.67829299  0.06628443     0.02900
C880        C  0.88285870  0.68647218  0.04089653     0.00600
C881        C  0.91062256  0.71132443  0.05738226    -0.11100
C882        C  0.91134617  0.72824547  0.09764986     0.02800
H883        H  0.83488496  0.68855955  0.12588083     0.15800
H884        H  0.93190239  0.71765871  0.03867696     0.15800
C885        C  0.94087547  0.75292099  0.11337016     0.37400
C886        C  0.82615429  0.65227743  0.05257555     0.37300
N887        N  0.96450215  0.77266266  0.12615838    -0.42900
N888        N  0.80282331  0.63140702  0.04141626    -0.42900
loop_ 
_geom_bond_atom_site_label_1 
_geom_bond_atom_site_label_2 
_geom_bond_distance 
_geom_bond_site_symmetry_2 
_ccdc_geom_bond_type 
O1            C4   1.263       .  A
O1           Cd6   2.455       .  S
C2           O11   1.265       .  A
C2            O7   1.266       .  A
C2          C211   1.486       .  S
O3            C9   1.265       .  A
O3           Cd6   2.440       .  S
C4           O12   1.264       .  A
C4          C175   1.477       .  S
C5           O10   1.266       .  A
C5            O8   1.264       .  A
C5          C190   1.489       .  S
Cd6          O13   2.479       .  S
Cd6          O12   2.454       .  S
Cd6          O11   2.452       .  S
Cd6           O7   2.477       .  S
Cd6          O10   2.489       .  S
Cd6           O8   2.436       .  S
C9           O13   1.267       .  A
C9          C199   1.489       .  S
O14          C17   1.265   1_554  A
O14         Cd19   2.456       .  S
C15          O24   1.265       .  A
C15          O20   1.265       .  A
C15         C139   1.482       .  S
O16          C22   1.266       .  A
O16         Cd19   2.467       .  S
C17          O25   1.265       .  A
C17         C166   1.483       .  S
C18          O23   1.267       .  A
C18          O21   1.264       .  A
C18         C151   1.484       .  S
Cd19         O26   2.455       .  S
Cd19         O25   2.469   1_554  S
Cd19         O24   2.453       .  S
Cd19         O20   2.449       .  S
Cd19         O23   2.474       .  S
Cd19         O21   2.437       .  S
C22          O26   1.263       .  A
C22         C202   1.488       .  S
O27          C30   1.263       .  A
O27         Cd32   2.461       .  S
C28          O37   1.265       .  A
C28          O33   1.266       .  A
C28         C130   1.478       .  S
O29          C35   1.267       .  A
O29         Cd32   2.467       .  S
C30          O38   1.265       .  A
C30         C214   1.486   1_556  S
C31          O36   1.264       .  A
C31          O34   1.263       .  A
C31         C154   1.486       .  S
Cd32         O39   2.451       .  S
Cd32         O38   2.484       .  S
Cd32         O37   2.454       .  S
Cd32         O33   2.451       .  S
Cd32         O36   2.471       .  S
Cd32         O34   2.456       .  S
C35          O39   1.266       .  A
C35         C115   1.488       .  S
O40          C43   1.264       .  A
O40         Cd45   2.465       .  S
C41          O50   1.264       .  A
C41          O46   1.266       .  A
C41         C163   1.492       .  S
O42          C48   1.266       .  A
O42         Cd45   2.491       .  S
C43          O51   1.265       .  A
C43         C103   1.487       .  S
C44          O49   1.266       .  A
C44          O47   1.265       .  A
C44          C94   1.490       .  S
Cd45         O52   2.452       .  S
Cd45         O51   2.483       .  S
Cd45         O50   2.454       .  S
Cd45         O46   2.491       .  S
Cd45         O49   2.478       .  S
Cd45         O47   2.459       .  S
C48          O52   1.265       .  A
C48         C118   1.489       .  S
O53          C56   1.264       .  A
O53         Cd58   2.451       .  S
C54          O63   1.264       .  A
C54          O59   1.264       .  A
C54         C127   1.474       .  S
O55          C61   1.267       .  A
O55         Cd58   2.473       .  S
C56          O64   1.266       .  A
C56         C178   1.481       .  S
C57          O62   1.265       .  A
C57          O60   1.263       .  A
C57          C82   1.487       .  S
Cd58         O65   2.462       .  S
Cd58         O64   2.459       .  S
Cd58         O63   2.458       .  S
Cd58         O59   2.447       .  S
Cd58         O62   2.476       .  S
Cd58         O60   2.458       .  S
C61          O65   1.265       .  A
C61          C91   1.492       .  S
O66          C69   1.265       .  A
O66         Cd71   2.463       .  S
C67          O76   1.265       .  A
C67          O72   1.263       .  A
C67         C106   1.488       .  S
O68          C74   1.265       .  A
O68         Cd71   2.465       .  S
C69          O77   1.266       .  A
C69         C142   1.480       .  S
C70          O75   1.266       .  A
C70          O73   1.265       .  A
C70         C187   1.489       .  S
Cd71         O78   2.447       .  S
Cd71         O77   2.455       .  S
Cd71         O76   2.471       .  S
Cd71         O72   2.457       .  S
Cd71         O75   2.478       .  S
Cd71         O73   2.453       .  S
C74          O78   1.263       .  A
C74          C79   1.486       .  S
C79          C80   1.405       .  A
C79         C306   1.416       .  A
C80         C303   1.400       .  A
C80          H85   1.084       .  S
C81          C82   1.414       .  A
C81         C302   1.400   1_545  A
C81          C88   1.444       .  S
C82          C83   1.406       .  A
C83          C84   1.400       .  A
C83          H86   1.085       .  S
C84         C301   1.416   1_545  A
C84          C87   1.445   1_545  S
C87          N89   1.158       .  T
C88          N90   1.157       .  T
C91          C92   1.407       .  A
C91          C96   1.417       .  A
C92          C93   1.402       .  A
C92          H97   1.084       .  S
C93          C94   1.415       .  A
C93         C100   1.444       .  S
C94          C95   1.406       .  A
C95          C96   1.401       .  A
C95          H98   1.085       .  S
C96          C99   1.444       .  S
C99         N101   1.157       .  T
C100        N102   1.157       .  T
C103        C104   1.405       .  A
C103        C108   1.414       .  A
C104        C105   1.402       .  A
C104        H109   1.086       .  S
C105        C106   1.416       .  A
C105        C112   1.445       .  S
C106        C107   1.405       .  A
C107        C108   1.401       .  A
C107        H110   1.087       .  S
C108        C111   1.444       .  S
C111        N113   1.157       .  T
C112        N114   1.158       .  T
C115        C116   1.406       .  A
C115        C120   1.415       .  A
C116        C561   1.403       .  A
C116        H121   1.084       .  S
C117        C118   1.415       .  A
C117        C560   1.403   1_455  A
C117        C124   1.444       .  S
C118        C119   1.405       .  A
C119        C564   1.399   1_455  A
C119        H122   1.084       .  S
C120        C563   1.399       .  A
C120        C123   1.445       .  S
C123        N125   1.157       .  T
C124        N126   1.157       .  T
C127        C128   1.404       .  A
C127        C132   1.411       .  A
C128        C129   1.400       .  A
C128        H133   1.079       .  S
C129        C130   1.414       .  A
C129        C136   1.445       .  S
C130        C131   1.405       .  A
C131        C132   1.399       .  A
C131        H134   1.081       .  S
C132        C135   1.444       .  S
C135        N137   1.157       .  T
C136        N138   1.157       .  T
C139        C140   1.405       .  A
C139        C144   1.414       .  A
C140        C141   1.400       .  A
C140        H145   1.086       .  S
C141        C142   1.413       .  A
C141        C148   1.444       .  S
C142        C143   1.403       .  A
C143        C144   1.398       .  A
C143        H146   1.086       .  S
C144        C147   1.444       .  S
C147        N149   1.157       .  T
C148        N150   1.157       .  T
C151        C156   1.414       .  A
C151        C374   1.405       .  A
C152        C153   1.402       .  A
C152        C373   1.405   1_545  A
C152        H157   1.085   1_545  S
C153        C154   1.415   1_554  A
C153        C160   1.444       .  S
C154        C155   1.405       .  A
C155        C378   1.398   1_546  A
C155        H158   1.084       .  S
C156        C377   1.398   1_554  A
C156        C159   1.445   1_554  S
C159        N161   1.157       .  T
C160        N162   1.157       .  T
C163        C164   1.408       .  A
C163        C168   1.417       .  A
C164        C165   1.404       .  A
C164        H169   1.082       .  S
C165        C166   1.413       .  A
C165        C172   1.445       .  S
C166        C167   1.403       .  A
C167        C168   1.400       .  A
C167        H170   1.082       .  S
C168        C171   1.444       .  S
C171        N173   1.157       .  T
C172        N174   1.157       .  T
C175        C176   1.403       .  A
C175        C180   1.413       .  A
C176        C177   1.398       .  A
C176        H181   1.088       .  S
C177        C178   1.413       .  A
C177        C184   1.444       .  S
C178        C179   1.406       .  A
C179        C180   1.399       .  A
C179        H182   1.086       .  S
C180        C183   1.445       .  S
C183        N185   1.158       .  T
C184        N186   1.157       .  T
C187        C188   1.408       .  A
C187        C192   1.415       .  A
C188        C189   1.404   1_455  A
C188        H193   1.082       .  S
C189        C634   1.416       .  A
C189        C640   1.444       .  S
C190        C191   1.406       .  A
C190        C633   1.416       .  A
C191        C636   1.398       .  A
C191        H194   1.084       .  S
C192        C635   1.398   1_455  A
C192        C195   1.444       .  S
C195        N197   1.157       .  T
C196        C633   1.444       .  S
C196        N642   1.157       .  T
N198        C640   1.157       .  T
C199        C200   1.406       .  A
C199        C204   1.415       .  A
C200        C201   1.399       .  A
C200        H205   1.086       .  S
C201        C202   1.416       .  A
C201        C208   1.445       .  S
C202        C203   1.406       .  A
C203        C204   1.401       .  A
C203        H206   1.086       .  S
C204        C207   1.444       .  S
C207        N209   1.157       .  T
C208        N210   1.158       .  T
C211        C212   1.405       .  A
C211        C216   1.415       .  A
C212        C213   1.402       .  A
C212        H217   1.084       .  S
C213        C214   1.416       .  A
C213        C220   1.445       .  S
C214        C215   1.404       .  A
C215        C216   1.401       .  A
C215        H218   1.083       .  S
C216        C219   1.444       .  S
C219        N221   1.157       .  T
C220        N222   1.158       .  T
O223        C226   1.263       .  A
O223       Cd228   2.455       .  S
C224        O233   1.265       .  A
C224        O229   1.266       .  A
C224        C433   1.486       .  S
O225        C231   1.265       .  A
O225       Cd228   2.440       .  S
C226        O234   1.264       .  A
C226        C397   1.477       .  S
C227        O232   1.266       .  A
C227        O230   1.264       .  A
C227        C412   1.489       .  S
Cd228       O235   2.479       .  S
Cd228       O234   2.454       .  S
Cd228       O233   2.452       .  S
Cd228       O229   2.477       .  S
Cd228       O232   2.489       .  S
Cd228       O230   2.436       .  S
C231        O235   1.267       .  A
C231        C421   1.489       .  S
O236        C239   1.265   1_554  A
O236       Cd241   2.456       .  S
C237        O246   1.265       .  A
C237        O242   1.265       .  A
C237        C361   1.482       .  S
O238        C244   1.266       .  A
O238       Cd241   2.467       .  S
C239        O247   1.265       .  A
C239        C388   1.483       .  S
C240        O245   1.267       .  A
C240        O243   1.264       .  A
C240        C373   1.484       .  S
Cd241       O248   2.455       .  S
Cd241       O247   2.469   1_554  S
Cd241       O246   2.453       .  S
Cd241       O242   2.449       .  S
Cd241       O245   2.474       .  S
Cd241       O243   2.437       .  S
C244        O248   1.263       .  A
C244        C424   1.488       .  S
O249        C252   1.263       .  A
O249       Cd254   2.461       .  S
C250        O259   1.265       .  A
C250        O255   1.266       .  A
C250        C352   1.478       .  S
O251        C257   1.267       .  A
O251       Cd254   2.467       .  S
C252        O260   1.265       .  A
C252        C436   1.486   1_556  S
C253        O258   1.264       .  A
C253        O256   1.263       .  A
C253        C376   1.486       .  S
Cd254       O261   2.451       .  S
Cd254       O260   2.484       .  S
Cd254       O259   2.454       .  S
Cd254       O255   2.451       .  S
Cd254       O258   2.471       .  S
Cd254       O256   2.456       .  S
C257        O261   1.266       .  A
C257        C337   1.488       .  S
O262        C265   1.264       .  A
O262       Cd267   2.465       .  S
C263        O272   1.264       .  A
C263        O268   1.266       .  A
C263        C385   1.492       .  S
O264        C270   1.266       .  A
O264       Cd267   2.491       .  S
C265        O273   1.265       .  A
C265        C325   1.487       .  S
C266        O271   1.266       .  A
C266        O269   1.265       .  A
C266        C316   1.490       .  S
Cd267       O274   2.452       .  S
Cd267       O273   2.483       .  S
Cd267       O272   2.454       .  S
Cd267       O268   2.491       .  S
Cd267       O271   2.478       .  S
Cd267       O269   2.459       .  S
C270        O274   1.265       .  A
C270        C340   1.489       .  S
O275        C278   1.264       .  A
O275       Cd280   2.451       .  S
C276        O285   1.264       .  A
C276        O281   1.264       .  A
C276        C349   1.474       .  S
O277        C283   1.267       .  A
O277       Cd280   2.473       .  S
C278        O286   1.266       .  A
C278        C400   1.481       .  S
C279        O284   1.265       .  A
C279        O282   1.263       .  A
C279        C304   1.487       .  S
Cd280       O287   2.462       .  S
Cd280       O286   2.459       .  S
Cd280       O285   2.458       .  S
Cd280       O281   2.447       .  S
Cd280       O284   2.476       .  S
Cd280       O282   2.458       .  S
C283        O287   1.265       .  A
C283        C313   1.492       .  S
O288        C291   1.265       .  A
O288       Cd293   2.463       .  S
C289        O298   1.265       .  A
C289        O294   1.263       .  A
C289        C328   1.488       .  S
O290        C296   1.265       .  A
O290       Cd293   2.465       .  S
C291        O299   1.266       .  A
C291        C364   1.480       .  S
C292        O297   1.266       .  A
C292        O295   1.265       .  A
C292        C409   1.489       .  S
Cd293       O300   2.447       .  S
Cd293       O299   2.455       .  S
Cd293       O298   2.471       .  S
Cd293       O294   2.457       .  S
Cd293       O297   2.478       .  S
Cd293       O295   2.453       .  S
C296        O300   1.263       .  A
C296        C301   1.486       .  S
C301        C302   1.405       .  A
C302        H307   1.084       .  S
C303        C304   1.414       .  A
C303        C310   1.444       .  S
C304        C305   1.406       .  A
C305        C306   1.400       .  A
C305        H308   1.084       .  S
C306        C309   1.445       .  S
C309        N311   1.158       .  T
C310        N312   1.157       .  T
C313        C314   1.407       .  A
C313        C318   1.417       .  A
C314        C315   1.402       .  A
C314        H319   1.084       .  S
C315        C316   1.415       .  A
C315        C322   1.444       .  S
C316        C317   1.406       .  A
C317        C318   1.401       .  A
C317        H320   1.085       .  S
C318        C321   1.444       .  S
C321        N323   1.157       .  T
C322        N324   1.157       .  T
C325        C326   1.405       .  A
C325        C330   1.414       .  A
C326        C327   1.402       .  A
C326        H331   1.086       .  S
C327        C328   1.416       .  A
C327        C334   1.445       .  S
C328        C329   1.405       .  A
C329        C330   1.401       .  A
C329        H332   1.087       .  S
C330        C333   1.444       .  S
C333        N335   1.157       .  T
C334        N336   1.158       .  T
C337        C338   1.406       .  A
C337        C342   1.415       .  A
C338        C783   1.403       .  A
C338        H343   1.084       .  S
C339        C782   1.403   1_455  A
C339        C340   1.415       .  A
C339        C346   1.444       .  S
C340        C341   1.405       .  A
C341        C786   1.399   1_455  A
C341        H344   1.084       .  S
C342        C785   1.399       .  A
C342        C345   1.445       .  S
C345        N347   1.157       .  T
C346        N348   1.157       .  T
C349        C350   1.404       .  A
C349        C354   1.411       .  A
C350        C351   1.400       .  A
C350        H355   1.079       .  S
C351        C352   1.414       .  A
C351        C358   1.445       .  S
C352        C353   1.405       .  A
C353        C354   1.399       .  A
C353        H356   1.081       .  S
C354        C357   1.444       .  S
C357        N359   1.157       .  T
C358        N360   1.157       .  T
C361        C362   1.405       .  A
C361        C366   1.414       .  A
C362        C363   1.400       .  A
C362        H367   1.086       .  S
C363        C364   1.413       .  A
C363        C370   1.444       .  S
C364        C365   1.403       .  A
C365        C366   1.398       .  A
C365        H368   1.086       .  S
C366        C369   1.444       .  S
C369        N371   1.157       .  T
C370        N372   1.157       .  T
C373        C378   1.414       .  A
C374        C375   1.402       .  A
C374        H379   1.085       .  S
C375        C376   1.415   1_554  A
C375        C382   1.444       .  S
C376        C377   1.405       .  A
C377        H380   1.084       .  S
C378        C381   1.445   1_554  S
C381        N383   1.157       .  T
C382        N384   1.157       .  T
C385        C386   1.408       .  A
C385        C390   1.417       .  A
C386        C387   1.404       .  A
C386        H391   1.082       .  S
C387        C388   1.413       .  A
C387        C394   1.445       .  S
C388        C389   1.403       .  A
C389        C390   1.400       .  A
C389        H392   1.082       .  S
C390        C393   1.444       .  S
C393        N395   1.157       .  T
C394        N396   1.157       .  T
C397        C398   1.403       .  A
C397        C402   1.413       .  A
C398        C399   1.398       .  A
C398        H403   1.088       .  S
C399        C400   1.413       .  A
C399        C406   1.444       .  S
C400        C401   1.406       .  A
C401        C402   1.399       .  A
C401        H404   1.086       .  S
C402        C405   1.445       .  S
C405        N407   1.158       .  T
C406        N408   1.157       .  T
C409        C410   1.408       .  A
C409        C414   1.415       .  A
C410        C411   1.404   1_455  A
C410        H415   1.082       .  S
C411        C856   1.416       .  A
C411        C862   1.444       .  S
C412        C855   1.416       .  A
C412        C413   1.406       .  A
C413        C858   1.398       .  A
C413        H416   1.084       .  S
C414        C857   1.398   1_455  A
C414        C417   1.444       .  S
C417        N419   1.157       .  T
C418        C855   1.444       .  S
C418        N864   1.157       .  T
N420        C862   1.157       .  T
C421        C422   1.406       .  A
C421        C426   1.415       .  A
C422        C423   1.399       .  A
C422        H427   1.086       .  S
C423        C424   1.416       .  A
C423        C430   1.445       .  S
C424        C425   1.406       .  A
C425        C426   1.401       .  A
C425        H428   1.086       .  S
C426        C429   1.444       .  S
C429        N431   1.157       .  T
C430        N432   1.158       .  T
C433        C434   1.405       .  A
C433        C438   1.415       .  A
C434        C435   1.402       .  A
C434        H439   1.084       .  S
C435        C436   1.416       .  A
C435        C442   1.445       .  S
C436        C437   1.404       .  A
C437        C438   1.401       .  A
C437        H440   1.083       .  S
C438        C441   1.444       .  S
C441        N443   1.157       .  T
C442        N444   1.158       .  T
O445        C448   1.263       .  A
O445       Cd450   2.455       .  S
C446        O455   1.265       .  A
C446        O451   1.266       .  A
C446        C655   1.486       .  S
O447        C453   1.265       .  A
O447       Cd450   2.440       .  S
C448        O456   1.264       .  A
C448        C619   1.477       .  S
C449        O454   1.266       .  A
C449        O452   1.264       .  A
C449        C634   1.489       .  S
Cd450       O457   2.479       .  S
Cd450       O456   2.454       .  S
Cd450       O455   2.452       .  S
Cd450       O451   2.477       .  S
Cd450       O454   2.489       .  S
Cd450       O452   2.436       .  S
C453        O457   1.267       .  A
C453        C643   1.489       .  S
O458        C461   1.265   1_554  A
O458       Cd463   2.456       .  S
C459        O468   1.265       .  A
C459        O464   1.265       .  A
C459        C583   1.482       .  S
O460        C466   1.266       .  A
O460       Cd463   2.467       .  S
C461        O469   1.265       .  A
C461        C610   1.483       .  S
C462        O467   1.267       .  A
C462        O465   1.264       .  A
C462        C595   1.484       .  S
Cd463       O470   2.455       .  S
Cd463       O469   2.469   1_554  S
Cd463       O468   2.453       .  S
Cd463       O464   2.449       .  S
Cd463       O467   2.474       .  S
Cd463       O465   2.437       .  S
C466        O470   1.263       .  A
C466        C646   1.488       .  S
O471        C474   1.263       .  A
O471       Cd476   2.461       .  S
C472        O481   1.265       .  A
C472        O477   1.266       .  A
C472        C574   1.478       .  S
O473        C479   1.267       .  A
O473       Cd476   2.467       .  S
C474        O482   1.265       .  A
C474        C658   1.486   1_556  S
C475        O480   1.264       .  A
C475        O478   1.263       .  A
C475        C598   1.486       .  S
Cd476       O483   2.451       .  S
Cd476       O482   2.484       .  S
Cd476       O481   2.454       .  S
Cd476       O477   2.451       .  S
Cd476       O480   2.471       .  S
Cd476       O478   2.456       .  S
C479        O483   1.266       .  A
C479        C559   1.488       .  S
O484        C487   1.264       .  A
O484       Cd489   2.465       .  S
C485        O494   1.264       .  A
C485        O490   1.266       .  A
C485        C607   1.492       .  S
O486        C492   1.266       .  A
O486       Cd489   2.491       .  S
C487        O495   1.265       .  A
C487        C547   1.487       .  S
C488        O493   1.266       .  A
C488        O491   1.265       .  A
C488        C538   1.490       .  S
Cd489       O496   2.452       .  S
Cd489       O495   2.483       .  S
Cd489       O494   2.454       .  S
Cd489       O490   2.491       .  S
Cd489       O493   2.478       .  S
Cd489       O491   2.459       .  S
C492        O496   1.265       .  A
C492        C562   1.489       .  S
O497        C500   1.264       .  A
O497       Cd502   2.451       .  S
C498        O507   1.264       .  A
C498        O503   1.264       .  A
C498        C571   1.474       .  S
O499        C505   1.267       .  A
O499       Cd502   2.473       .  S
C500        O508   1.266       .  A
C500        C622   1.481       .  S
C501        O506   1.265       .  A
C501        O504   1.263       .  A
C501        C526   1.487       .  S
Cd502       O509   2.462       .  S
Cd502       O508   2.459       .  S
Cd502       O507   2.458       .  S
Cd502       O503   2.447       .  S
Cd502       O506   2.476       .  S
Cd502       O504   2.458       .  S
C505        O509   1.265       .  A
C505        C535   1.492       .  S
O510        C513   1.265       .  A
O510       Cd515   2.463       .  S
C511        O520   1.265       .  A
C511        O516   1.263       .  A
C511        C550   1.488       .  S
O512        C518   1.265       .  A
O512       Cd515   2.465       .  S
C513        O521   1.266       .  A
C513        C586   1.480       .  S
C514        O519   1.266       .  A
C514        O517   1.265       .  A
C514        C631   1.489       .  S
Cd515       O522   2.447       .  S
Cd515       O521   2.455       .  S
Cd515       O520   2.471       .  S
Cd515       O516   2.457       .  S
Cd515       O519   2.478       .  S
Cd515       O517   2.453       .  S
C518        O522   1.263       .  A
C518        C523   1.486       .  S
C523        C524   1.405       .  A
C523        C750   1.416       .  A
C524        C747   1.400       .  A
C524        H529   1.084       .  S
C525        C746   1.400   1_545  A
C525        C526   1.414       .  A
C525        C532   1.444       .  S
C526        C527   1.406       .  A
C527        C528   1.400       .  A
C527        H530   1.084       .  S
C528        C745   1.416   1_545  A
C528        C531   1.445   1_545  S
C531        N533   1.158       .  T
C532        N534   1.157       .  T
C535        C536   1.407       .  A
C535        C540   1.417       .  A
C536        C537   1.402       .  A
C536        H541   1.084       .  S
C537        C538   1.415       .  A
C537        C544   1.444       .  S
C538        C539   1.406       .  A
C539        C540   1.401       .  A
C539        H542   1.085       .  S
C540        C543   1.444       .  S
C543        N545   1.157       .  T
C544        N546   1.157       .  T
C547        C548   1.405       .  A
C547        C552   1.414       .  A
C548        C549   1.402       .  A
C548        H553   1.086       .  S
C549        C550   1.416       .  A
C549        C556   1.445       .  S
C550        C551   1.405       .  A
C551        C552   1.401       .  A
C551        H554   1.087       .  S
C552        C555   1.444       .  S
C555        N557   1.157       .  T
C556        N558   1.158       .  T
C559        C560   1.406       .  A
C559        C564   1.415       .  A
C560        H565   1.084       .  S
C561        C562   1.415       .  A
C561        C568   1.444       .  S
C562        C563   1.405       .  A
C563        H566   1.084       .  S
C564        C567   1.445       .  S
C567        N569   1.157       .  T
C568        N570   1.157       .  T
C571        C572   1.404       .  A
C571        C576   1.411       .  A
C572        C573   1.400       .  A
C572        H577   1.079       .  S
C573        C574   1.414       .  A
C573        C580   1.445       .  S
C574        C575   1.405       .  A
C575        C576   1.399       .  A
C575        H578   1.081       .  S
C576        C579   1.444       .  S
C579        N581   1.157       .  T
C580        N582   1.157       .  T
C583        C584   1.405       .  A
C583        C588   1.414       .  A
C584        C585   1.400       .  A
C584        H589   1.086       .  S
C585        C586   1.413       .  A
C585        C592   1.444       .  S
C586        C587   1.403       .  A
C587        C588   1.398       .  A
C587        H590   1.086       .  S
C588        C591   1.444       .  S
C591        N593   1.157       .  T
C592        N594   1.157       .  T
C595        C818   1.405       .  A
C595        C600   1.414       .  A
C596        C817   1.405   1_545  A
C596        C597   1.402       .  A
C596        H601   1.085   1_545  S
C597        C598   1.415   1_554  A
C597        C604   1.444       .  S
C598        C599   1.405       .  A
C599        C822   1.398   1_546  A
C599        H602   1.084       .  S
C600        C821   1.398   1_554  A
C600        C603   1.445   1_554  S
C603        N605   1.157       .  T
C604        N606   1.157       .  T
C607        C608   1.408       .  A
C607        C612   1.417       .  A
C608        C609   1.404       .  A
C608        H613   1.082       .  S
C609        C610   1.413       .  A
C609        C616   1.445       .  S
C610        C611   1.403       .  A
C611        C612   1.400       .  A
C611        H614   1.082       .  S
C612        C615   1.444       .  S
C615        N617   1.157       .  T
C616        N618   1.157       .  T
C619        C620   1.403       .  A
C619        C624   1.413       .  A
C620        C621   1.398       .  A
C620        H625   1.088       .  S
C621        C622   1.413       .  A
C621        C628   1.444       .  S
C622        C623   1.406       .  A
C623        C624   1.399       .  A
C623        H626   1.086       .  S
C624        C627   1.445       .  S
C627        N629   1.158       .  T
C628        N630   1.157       .  T
C631        C632   1.408       .  A
C631        C636   1.415       .  A
C632        C633   1.404       .  A
C632        H637   1.082       .  S
C634        C635   1.406       .  A
C635        H638   1.084       .  S
C636        C639   1.444       .  S
C639        N641   1.157       .  T
C643        C644   1.406       .  A
C643        C648   1.415       .  A
C644        C645   1.399       .  A
C644        H649   1.086       .  S
C645        C646   1.416       .  A
C645        C652   1.445       .  S
C646        C647   1.406       .  A
C647        C648   1.401       .  A
C647        H650   1.086       .  S
C648        C651   1.444       .  S
C651        N653   1.157       .  T
C652        N654   1.158       .  T
C655        C656   1.405       .  A
C655        C660   1.415       .  A
C656        C657   1.402       .  A
C656        H661   1.084       .  S
C657        C658   1.416       .  A
C657        C664   1.445       .  S
C658        C659   1.404       .  A
C659        C660   1.401       .  A
C659        H662   1.083       .  S
C660        C663   1.444       .  S
C663        N665   1.157       .  T
C664        N666   1.158       .  T
O667        C670   1.263       .  A
O667       Cd672   2.455       .  S
C668        O677   1.265       .  A
C668        O673   1.266       .  A
C668        C877   1.486       .  S
O669        C675   1.265       .  A
O669       Cd672   2.440       .  S
C670        O678   1.264       .  A
C670        C841   1.477       .  S
C671        O676   1.266       .  A
C671        O674   1.264       .  A
C671        C856   1.489       .  S
Cd672       O679   2.479       .  S
Cd672       O678   2.454       .  S
Cd672       O677   2.452       .  S
Cd672       O673   2.477       .  S
Cd672       O676   2.489       .  S
Cd672       O674   2.436       .  S
C675        O679   1.267       .  A
C675        C865   1.489       .  S
O680        C683   1.265   1_554  A
O680       Cd685   2.456       .  S
C681        O690   1.265       .  A
C681        O686   1.265       .  A
C681        C805   1.482       .  S
O682        C688   1.266       .  A
O682       Cd685   2.467       .  S
C683        O691   1.265       .  A
C683        C832   1.483       .  S
C684        O689   1.267       .  A
C684        O687   1.264       .  A
C684        C817   1.484       .  S
Cd685       O692   2.455       .  S
Cd685       O691   2.469   1_554  S
Cd685       O690   2.453       .  S
Cd685       O686   2.449       .  S
Cd685       O689   2.474       .  S
Cd685       O687   2.437       .  S
C688        O692   1.263       .  A
C688        C868   1.488       .  S
O693        C696   1.263       .  A
O693       Cd698   2.461       .  S
C694        O703   1.265       .  A
C694        O699   1.266       .  A
C694        C796   1.478       .  S
O695        C701   1.267       .  A
O695       Cd698   2.467       .  S
C696        O704   1.265       .  A
C696        C880   1.486   1_556  S
C697        O702   1.264       .  A
C697        O700   1.263       .  A
C697        C820   1.486       .  S
Cd698       O705   2.451       .  S
Cd698       O704   2.484       .  S
Cd698       O703   2.454       .  S
Cd698       O699   2.451       .  S
Cd698       O702   2.471       .  S
Cd698       O700   2.456       .  S
C701        O705   1.266       .  A
C701        C781   1.488       .  S
O706        C709   1.264       .  A
O706       Cd711   2.465       .  S
C707        O716   1.264       .  A
C707        O712   1.266       .  A
C707        C829   1.492       .  S
O708        C714   1.266       .  A
O708       Cd711   2.491       .  S
C709        O717   1.265       .  A
C709        C769   1.487       .  S
C710        O715   1.266       .  A
C710        O713   1.265       .  A
C710        C760   1.490       .  S
Cd711       O718   2.452       .  S
Cd711       O717   2.483       .  S
Cd711       O716   2.454       .  S
Cd711       O712   2.491       .  S
Cd711       O715   2.478       .  S
Cd711       O713   2.459       .  S
C714        O718   1.265       .  A
C714        C784   1.489       .  S
O719        C722   1.264       .  A
O719       Cd724   2.451       .  S
C720        O729   1.264       .  A
C720        O725   1.264       .  A
C720        C793   1.474       .  S
O721        C727   1.267       .  A
O721       Cd724   2.473       .  S
C722        O730   1.266       .  A
C722        C844   1.481       .  S
C723        O728   1.265       .  A
C723        O726   1.263       .  A
C723        C748   1.487       .  S
Cd724       O731   2.462       .  S
Cd724       O730   2.459       .  S
Cd724       O729   2.458       .  S
Cd724       O725   2.447       .  S
Cd724       O728   2.476       .  S
Cd724       O726   2.458       .  S
C727        O731   1.265       .  A
C727        C757   1.492       .  S
O732        C735   1.265       .  A
O732       Cd737   2.463       .  S
C733        O742   1.265       .  A
C733        O738   1.263       .  A
C733        C772   1.488       .  S
O734        C740   1.265       .  A
O734       Cd737   2.465       .  S
C735        O743   1.266       .  A
C735        C808   1.480       .  S
C736        O741   1.266       .  A
C736        O739   1.265       .  A
C736        C853   1.489       .  S
Cd737       O744   2.447       .  S
Cd737       O743   2.455       .  S
Cd737       O742   2.471       .  S
Cd737       O738   2.457       .  S
Cd737       O741   2.478       .  S
Cd737       O739   2.453       .  S
C740        O744   1.263       .  A
C740        C745   1.486       .  S
C745        C746   1.405       .  A
C746        H751   1.084       .  S
C747        C748   1.414       .  A
C747        C754   1.444       .  S
C748        C749   1.406       .  A
C749        C750   1.400       .  A
C749        H752   1.084       .  S
C750        C753   1.445       .  S
C753        N755   1.158       .  T
C754        N756   1.157       .  T
C757        C758   1.407       .  A
C757        C762   1.417       .  A
C758        C759   1.402       .  A
C758        H763   1.084       .  S
C759        C760   1.415       .  A
C759        C766   1.444       .  S
C760        C761   1.406       .  A
C761        C762   1.401       .  A
C761        H764   1.085       .  S
C762        C765   1.444       .  S
C765        N767   1.157       .  T
C766        N768   1.157       .  T
C769        C770   1.405       .  A
C769        C774   1.414       .  A
C770        C771   1.402       .  A
C770        H775   1.086       .  S
C771        C772   1.416       .  A
C771        C778   1.445       .  S
C772        C773   1.405       .  A
C773        C774   1.401       .  A
C773        H776   1.087       .  S
C774        C777   1.444       .  S
C777        N779   1.157       .  T
C778        N780   1.158       .  T
C781        C782   1.406       .  A
C781        C786   1.415       .  A
C782        H787   1.084       .  S
C783        C784   1.415       .  A
C783        C790   1.444       .  S
C784        C785   1.405       .  A
C785        H788   1.084       .  S
C786        C789   1.445       .  S
C789        N791   1.157       .  T
C790        N792   1.157       .  T
C793        C794   1.404       .  A
C793        C798   1.411       .  A
C794        C795   1.400       .  A
C794        H799   1.079       .  S
C795        C796   1.414       .  A
C795        C802   1.445       .  S
C796        C797   1.405       .  A
C797        C798   1.399       .  A
C797        H800   1.081       .  S
C798        C801   1.444       .  S
C801        N803   1.157       .  T
C802        N804   1.157       .  T
C805        C806   1.405       .  A
C805        C810   1.414       .  A
C806        C807   1.400       .  A
C806        H811   1.086       .  S
C807        C808   1.413       .  A
C807        C814   1.444       .  S
C808        C809   1.403       .  A
C809        C810   1.398       .  A
C809        H812   1.086       .  S
C810        C813   1.444       .  S
C813        N815   1.157       .  T
C814        N816   1.157       .  T
C817        C822   1.414       .  A
C818        C819   1.402       .  A
C818        H823   1.085       .  S
C819        C820   1.415   1_554  A
C819        C826   1.444       .  S
C820        C821   1.405       .  A
C821        H824   1.084       .  S
C822        C825   1.445   1_554  S
C825        N827   1.157       .  T
C826        N828   1.157       .  T
C829        C830   1.408       .  A
C829        C834   1.417       .  A
C830        C831   1.404       .  A
C830        H835   1.082       .  S
C831        C832   1.413       .  A
C831        C838   1.445       .  S
C832        C833   1.403       .  A
C833        C834   1.400       .  A
C833        H836   1.082       .  S
C834        C837   1.444       .  S
C837        N839   1.157       .  T
C838        N840   1.157       .  T
C841        C842   1.403       .  A
C841        C846   1.413       .  A
C842        C843   1.398       .  A
C842        H847   1.088       .  S
C843        C844   1.413       .  A
C843        C850   1.444       .  S
C844        C845   1.406       .  A
C845        C846   1.399       .  A
C845        H848   1.086       .  S
C846        C849   1.445       .  S
C849        N851   1.158       .  T
C850        N852   1.157       .  T
C853        C854   1.408       .  A
C853        C858   1.415       .  A
C854        C855   1.404       .  A
C854        H859   1.082       .  S
C856        C857   1.406       .  A
C857        H860   1.084       .  S
C858        C861   1.444       .  S
C861        N863   1.157       .  T
C865        C866   1.406       .  A
C865        C870   1.415       .  A
C866        C867   1.399       .  A
C866        H871   1.086       .  S
C867        C868   1.416       .  A
C867        C874   1.445       .  S
C868        C869   1.406       .  A
C869        C870   1.401       .  A
C869        H872   1.086       .  S
C870        C873   1.444       .  S
C873        N875   1.157       .  T
C874        N876   1.158       .  T
C877        C878   1.405       .  A
C877        C882   1.415       .  A
C878        C879   1.402       .  A
C878        H883   1.084       .  S
C879        C880   1.416       .  A
C879        C886   1.445       .  S
C880        C881   1.404       .  A
C881        C882   1.401       .  A
C881        H884   1.083       .  S
C882        C885   1.444       .  S
C885        N887   1.157       .  T
C886        N888   1.158       .  T
